<?xml version="1.0" encoding="UTF-8"?>
<configuration xmlns:xsi="http://www.w3.org/2001/XMLSchema-instance" xsi:noNamespaceSchemaLocation="http://sumo.dlr.de/xsd/sumoConfiguration.xsd">
    <input>
        <net-file value="colonia.net.xml"/>
        <route-files value="colonia.rou.xml"/>
    </input>

    <gui_only>
        <start value="true"/>
    </gui_only>
    

</configuration>
