<?xml version="1.0" encoding="UTF-8"?>

<!-- generated on Wed Jun 22 19:25:13 2022 by SUMO duarouter Version 0.32.0
<?xml version="1.0" encoding="UTF-8"?>

<configuration xmlns:xsi="http://www.w3.org/2001/XMLSchema-instance" xsi:noNamespaceSchemaLocation="http://sumo.dlr.de/xsd/duarouterConfiguration.xsd">

    <input>
        <net-file value="colonia.net.xml"/>
        <route-files value="trips.trips.xml"/>
    </input>

    <output>
        <output-file value="colonia.rou.xml"/>
        <alternatives-output value="colonia.rou.alt.xml"/>
    </output>

    <processing>
        <ignore-errors value="true"/>
    </processing>

    <time>
        <begin value="0"/>
        <end value="500.0"/>
    </time>

    <report>
        <no-warnings value="true"/>
        <no-step-log value="true"/>
    </report>

</configuration>
-->

<routes xmlns:xsi="http://www.w3.org/2001/XMLSchema-instance" xsi:noNamespaceSchemaLocation="http://sumo.dlr.de/xsd/routes_file.xsd">
    <vehicle id="0" depart="0.0">
        <route edges="-24538330#8 24538330#8 24538330#9 24538330#10 -24648323#10 -24648323#5 -24648323#3 -24648323#2 -24648323#1 -24648343#1 700558393#0 700558393#1 700558393#3 -24496517#3 25344960#0 25344960#1 25344960#3 25344960#4 25344960#5 25344960#6 25344960#7 25344960#8 25344960#9 25344960#10 25344960#11 149485313#0 -149485313#0 -25344960#11 -25344960#10 -25344960#9 -25344960#8 -25344960#7 -25344960#6 -25344960#5 -25344960#4 -25344960#3 -25344960#1 -25344960#0 24496517#3 145247186#0 145247186#1 145247186#2 24648344 23792805#0 23792805#1 23792805#2 23792805#3 -99716349#5 -99716349#4 -99716349#3 -99716349#1 -99716349#0 24491857#0 25202386#0 25202386#1 25202386#2 -25202384#5 -25202384#4 -25202384#3 -24492181#1 -24492181#0 -25202380#3 -25202380#2 25202380#2 25202380#3 -24491857#3 -24491857#2 -24491857#0 -24493964#6 -24493964#4 -24493964#2 -24648323#10 -24648323#5 -24648323#3 24648323#3 -24648323#3 -24648323#2 -24648323#1 -24648343#1 -24648342 -24648331 256226575#5 256226575#6 256226575#7 256226575#8 700558392#0 700558392#1 -700558392#1"/>
    </vehicle>
    <vehicle id="1" depart="0.01">
        <route edges="247324644#2 247324644#3 247324644#4 24491554#0 24491554#1 24491554#2 24491554#3 24491554#4 24491554#5 24491554#6 -24491265#8 -24491265#7 -24491265#6 -24491265#5 -24491265#4 -24491265#3 -24491265#2 -24491265#1 24491265#1 24491265#2 24491265#3 24491265#4 24491265#5 24491265#6 24491265#7 24491265#8 -24491554#6 -24491554#5 -24491554#4 -24491554#3 -24491554#2 -24491554#1 -24491554#0 -247324644#4 -247324644#3 -247324644#2 24648301 -24648300#0 24648300#0 -24648301 247324644#2 247324644#3 247324644#4 24491554#0 24491554#1 24491554#2 24491554#3 24491554#4 24491554#5 24538330#9 24538330#10 24493964#0 24493964#4 24493964#6 99716349#0 99716349#1 99716349#3 99716349#4 -99716349#4 -99716349#3 -99716349#1 -99716349#0 24491857#0 24491857#2 24491857#3 24491857#5 24491857#7 24491857#8 24492201#0 24492201#1 -25202384#0 -24492317#1 -24492317#0 -27405528 -24491857#9 -24491857#8 -24491857#7 -24491648#1 -24491648#0 -27405533#1 -27405533#0 207326010#3 -24491554#8 -24491554#7 -24491554#6 -24491554#5 -24491554#4 -24491554#3 -24491554#2 -24491554#1 -24491554#0 120305818#0 120305818#2 120305818#3 120305818#4 120305818#5 120305818#6 120305818#7 840540030#0 840540030#1 840540030#2 24648298 256226575#5 256226575#6 256226575#7 256226575#8 700558392#0 700558392#1"/>
    </vehicle>
    <vehicle id="2" depart="0.02">
        <route edges="-25202386#1 -25202386#0 -375912436#3 -375912436#2 -375912436#1 -375912436#0 24554090#3 24554090#4 210051548 207326010#1 207326010#2 27405533#0 27405533#1 27405533#2 -24491863#3 -24491863#2 24491863#2 24491863#3 -27405533#2 -27405533#1 -27405533#0 207326010#3 207326010#4 -210051548 -24554090#4 -24554090#3 -24554090#2 -24648323#10 -24648323#5 24648323#4 24648323#7 24493964#0 24493964#4 24493964#6 24491857#0 24491857#2 24491857#3 24491857#5 24491857#7 24491857#8 24491857#9 27405528 24492317#0 24492317#1 24492317#2 -24492317#2 -24492317#1 -24492317#0 -27405528 -24491857#9 -24491857#8 -24491857#7 -24491857#5 -24491857#3 -24491857#2 -24491857#0 -24493964#6 -24493964#4 -24493964#2 -24648323#10 -24648323#5 -24648323#3 -24648323#2 -24648323#1 -24648343#1 -24648343#0 24648343#0 24648343#1 -700558392#1 700558392#1 24648323#1 24648323#2 24648323#3 24648330 24648328#1 24648329#0 24648329#1 24648329#2 24648329#3 -120305818#6"/>
    </vehicle>
    <vehicle id="3" depart="0.03">
        <route edges="24648323#2 24648323#3 24648323#4 24494024#0 24494024#1 24648345 23792805#0 23792805#1 23792805#2 26686307#0 26686307#1 26686307#2 24648345 23792805#0 23792805#1 23792805#2 23792805#3 -99716349#5 -99716349#4 -99716349#3 -99716349#1 -99716349#0 -24493964#6 -24493964#4 -24493964#2 -24648323#10 -24648323#5 -24648323#3 -24648323#2 -24648323#1 -24648343#1 700558393#0 700558393#1 700558393#3 -24496517#3 25344960#0 25344960#1 25344960#3 -25344960#3 -25344960#1 -25344960#0 24496517#3 145247186#0 145247186#1 145247186#2 24648344 23792805#0 23792805#1 23792805#2 26686307#0 26686307#1 26686307#2 24648345 23792805#0 23792805#1 23792805#2 23792805#3 -99716349#5 -99716349#4 -99716349#3 -99716349#1 -99716349#0 -24493964#6 -24493964#4 -24493964#2 -24648323#10 -24648323#5 -24648323#3 -24648323#2 -24648323#1 -24648343#1 700558393#0 700558393#1 700558393#3 -24496517#3 24496517#3 -700558393#3 -700558393#1 -700558393#0 24648343#1 24648323#1 24648323#2 24648323#3 24648330 24648328#1 24648329#0 24648329#1 24648329#2 24648329#3 -120305818#6 24648324#0 -24648324#0"/>
    </vehicle>
    <vehicle id="4" depart="0.04">
        <route edges="-27405527 -120305813 -27405528 -24491857#9 -24491857#8 -24491857#7 -24491648#1 -24491648#0 -27405533#1 -27405533#0 207326010#3 -24491554#8 -24491554#7 -24491554#6 -24491554#5 -24491554#4 -24491554#3 -24491554#2 -24491554#1 -24491554#0 120305818#0 120305818#2 120305818#3 120305818#4 120305818#5 120305818#6 120305818#7 840540030#0 840540030#1 840540030#2 24648298 256226575#5 256226575#6 256226575#7 256226575#8 700558392#0 700558392#1 -24648343#1 -24648343#0 -24648339#4 24648339#4 24648343#0 24648343#1 24648323#1 24648323#2 24648323#3 24648323#4 24648323#7 24493964#0 24493964#4 24493964#6 24491857#0 24491857#2 24491857#3 24492181#0 24492181#1 25202384#3 -25202384#3 -24492181#1 -24492181#0 24491857#5 -24491648#1 -24491648#0 27405533#2 27405533#4 -27405533#4 -27405533#2 24491648#0 24491648#1 -24491857#5 24492181#0 -24492181#0 -24491857#3 -24491857#2 -24491857#0 -24493964#6 -24493964#4 -24493964#2 -24648323#10 -24648323#5 -24648323#3 -24648323#2 -24648323#1 -24648343#1 -24648343#0 -24648339#4 -24648339#3"/>
    </vehicle>
    <vehicle id="5" depart="0.05">
        <route edges="-24491863#2 -24491863#1 -24491863#0 -24491265#4 -24491265#3 -24491265#2 -24491265#1 -24491265#0 -24538329 24538330#1 24538330#4 24538330#5 24538330#6 24538330#7 24538330#8 24491554#6 24491554#7 24491554#8 207326010#4 -210051548 -24554090#4 -24554090#3 375912436#0 375912436#1 375912436#2 375912436#3 24491857#2 -25202383#1 -25202383#0 25202384#4 25202384#5 -25202386#2 -25202386#1 -25202386#0 -24491857#0 -24493964#6 -24493964#4 -24493964#2 -24648323#10 -24648323#5 -24648323#3 -24648323#2 -24648323#1 254626155#0 254626155#1 254626155#2 254626155#3 24648344 23792805#0 23792805#1 23792805#2 23792805#3 -99716349#5 -99716349#4 -99716349#3 -99716349#1 -99716349#0 -24493964#6 -24493964#4 -24493964#2 -24648323#10 -24648323#5 -24648323#3 -24648323#2 -24648323#1 -24648343#1 700558393#0 700558393#1 700558393#3 -24496517#3 25344960#0 25344960#1 25344960#3 25344960#4 25344960#5 25344960#6 -25344960#6 -25344960#5 -25344960#4 -25344960#3 -25344960#1 -25344960#0 24496517#3 -700558393#3"/>
    </vehicle>
    <vehicle id="6" depart="0.06">
        <route edges="24648306#0 24648306#1 256226575#2 256226575#3 256226575#4 256226575#5 256226575#6 256226575#7 256226575#8 700558392#0 700558392#1 24648323#1 24648323#2 24648323#3 24648323#4 24648323#7 24493964#0 24493964#4 24493964#6 24491857#0 24491857#2 24491857#3 24491857#5 -24491648#1 -24491648#0 -27405533#1 -27405533#0 207326010#3 -24491554#8 -24491554#7 -24491554#6 -24491554#5 -24491554#4 -24491554#3 -24491554#2 -24491554#1 -24491554#0 120305818#0 120305818#2 120305818#3 120305818#4 120305818#5 120305818#6 -24648329#3 24648329#3 -24648329#3 -24648329#2 -24648329#1 -24648329#0 -24648328#1 24648328#1 24648329#0 24648329#1 24648329#2 24648329#3 -120305818#6 -120305818#5 -120305818#4 -120305818#3 -120305818#2 24648312#0 24648312#1 -24648312#1 -24648312#0 24648308 24648305#1 24648305#2 -24648305#2 24648305#2 -24648321#4 -24648321#3 -24648321#2 -24648321#1 -24648321#0 24648321#0"/>
    </vehicle>
    <vehicle id="7" depart="0.07">
        <route edges="-24648340#3 -24648340#2 -24648340#1 -24648340#0 24648343#0 24648343#1 24648323#1 24648323#2 24648323#3 24648330 24648328#1 24648329#0 24648329#1 24648329#2 24648329#3 -120305818#6 -120305818#5 -120305818#4 -120305818#3 -120305818#2 24648312#0 24648312#1 24648312#2 24648312#3 24648312#4 24648312#5 -24648312#5 -24648312#4 -24648312#3 -24648312#2 -24648312#1 -24648312#0 -120305818#0 24491554#0 24491554#1 24491554#2 24491554#3 24491554#4 24491554#5 24491554#6 24491554#7 24491554#8 207326010#4 -210051548 -24554090#4 24538334#0 24538334#1 24538334#2 -24538330#9 -24491554#5 -24491554#4 -24491554#3 -24491554#2 -24491554#1 -24491554#0 120305818#0 24648312#0 24648312#1 24648312#2 24648312#3 24648312#4 24648312#5 -24648312#5 -24648312#4 -24648312#3 -24648312#2 -24648312#1 -24648312#0 -120305818#0 24491554#0 24491554#1 24491554#2 24491554#3 24491554#4 24491554#5 24538330#9 24538330#10 24493964#0 24493964#4 24493964#6 24491857#0 -375912436#3 -375912436#2 -375912436#1 -375912436#0 24554090#3 24554090#4 210051548 207326010#1 207326010#2 27405533#0 27405533#1 27405533#2 -24491863#3 -24491863#2 -24491410#1 -24491410#0 24491265#7 24491265#8 -24491554#6 24538330#9 24538330#10 -24648323#10 24494024#0 24494024#1"/>
    </vehicle>
    <vehicle id="8" depart="0.08">
        <route edges="-24491265#6 24491265#6 24491265#7 24491265#8 -24491554#6 -24491554#5 -24491554#4 -24491554#3 -24491554#2 -24491554#1 -24491554#0 120305818#0 120305818#2 120305818#3 120305818#4 120305818#5 120305818#6 120305818#7 840540030#0 840540030#1 840540030#2 24648298 24648331 24648333#0 24648335 -24648335 -24648333#0 24648342 700558393#0 700558393#1 700558393#3 -24648348#2 -24648348#1 24648348#1 24648348#2 -700558393#3 -700558393#1 700558393#1 700558393#3 145247186#0 145247186#1 145247186#2 24648344 23792805#0 23792805#1 23792805#2 23792805#3 -99716349#5 -99716349#4 -99716349#3 -99716349#1 -99716349#0 24491857#0 24491857#2 -25202383#1 25202383#1 25202385 -24554090#4 24538334#0 24538334#1 24538334#2 -24538330#9 -24538330#8 -24538330#7 -24538330#6 24538330#6 -24538330#6 -24538330#5 -24538330#4 -24538330#3 -24538331#2"/>
    </vehicle>
    <vehicle id="9" depart="0.09">
        <route edges="-24648325#2 -24648325#1 -24648325#0 -120305818#7 -120305818#6 -120305818#5 -120305818#4 -120305818#3 -120305818#2 -120305818#0 24491554#0 24491554#1 24491554#2 24491554#3 24491554#4 24491554#5 -24538330#8 -24538330#7 -24538330#6 24538330#6 24538330#7 24538330#8 -24491554#5 -24491554#4 -24491554#3 -24491554#2 -24491554#1 -24491554#0 120305818#0 120305818#2 120305818#3 120305818#4 120305818#5 120305818#6 120305818#7 24648325#0 24648325#1 24648325#2 24648325#3 24648307 24648306#0 24648306#1 256226575#2 256226575#3 256226575#4 256226575#5 256226575#6 256226575#7 256226575#8 700558392#0 700558392#1 24648323#1 24648323#2 24648323#3 -24648323#3 24648323#3 24648330 24648328#1 24648329#0 24648329#1 24648329#2 24648329#3 -120305818#6 24648324#0 -24648324#0 120305818#6 -24648329#3 -24648329#2 -24648329#1 -24648329#0 -24648328#1 -24648330 24648323#4 24648323#7 24554090#0 375912436#0 -375912436#0 24554090#3 24538334#0 24538334#1 24538334#2 -24538330#9 -24491554#5 -24491554#4 -24491554#3 -24491554#2 -24491554#1 -24491554#0 -247324644#4 -247324644#3 -247324644#2 -247324644#1 -247324644#0"/>
    </vehicle>
    <vehicle id="10" depart="0.1">
        <route edges="-24648326 24648321#0 24648321#1 24648321#2 24648321#3 -120305818#2 -120305818#0 24491554#0 24491554#1 24491554#2 24491554#3 24491554#4 24491554#5 24491554#6 24491554#7 24491554#8 207326010#4 207326010#1 207326010#2 27405533#0 27405533#1 24491648#0 24491648#1 24491857#7 24491857#8 24492201#0 -24492201#0 -24491857#8 -24491857#7 -24491648#1 -24491648#0 -27405533#1 -27405533#0 207326010#3 -24491554#8 -24491554#7 -24491554#6 24538330#9 -24538330#9 -24491554#5 -24491554#4 -24491554#3 -24491554#2 -24491554#1 -24491554#0 120305818#0 120305818#2 -24648321#3 -24648321#2 24648321#2 24648321#3 120305818#3 120305818#4 120305818#5 120305818#6 120305818#7 840540030#0 840540030#1 840540030#2 24648298 -256226575#4 -256226575#3 -256226575#2 -256226575#1"/>
    </vehicle>
    <vehicle id="11" depart="0.11">
        <route edges="-24491857#7 -24491648#1 -24491648#0 -27405533#1 -27405533#0 207326010#3 -24491554#8 -24491554#7 -24491554#6 -24491554#5 -24491554#4 -24491554#3 -24491554#2 -24491554#1 -24491554#0 24648303#0 24648305#0 24648305#1 24648305#2 24648305#3 -24648324#0 120305818#6 120305818#7 840540030#0 840540030#1 840540030#2 24648298 256226575#5 256226575#6 256226575#7 256226575#8 700558392#0 700558392#1 -24648343#1 700558393#0 700558393#1 700558393#3 -24496517#3 24496517#3 -24648348#2 24648348#2 145247186#0 145247186#1 145247186#2 24648344 23792805#0 23792805#1 23792805#2 23792805#3 -99716349#5 -99716349#4 99716349#4 -99716349#4 -99716349#3 -99716349#1 -99716349#0 -24493964#6 -24493964#4 -24493964#2 -24648323#10 -24648323#5 24648330 24648328#1 24648329#0 24648329#1 24648329#2 24648329#3 120305818#7 840540030#0 840540030#1 840540030#2"/>
    </vehicle>
    <vehicle id="12" depart="0.12">
        <route edges="-24491410#1 -24491410#0 24491265#7 24491265#8 -24491554#6 -24491554#5 -24491554#4 -24491554#3 -24491554#2 -24491554#1 -24491554#0 120305818#0 120305818#2 120305818#3 120305818#4 120305818#5 120305818#6 120305818#7 840540030#0 840540030#1 840540030#2 24648298 24648331 -24648331 256226575#5 256226575#6 256226575#7 256226575#8 700558392#0 700558392#1 24648323#1 24648323#2 24648323#3 24648323#4 24648323#7 -24538330#12 -24538330#9 -24491554#5 -24491554#4 -24491554#3 -24491554#2 24491554#2 -24491554#2 -24491554#1 -24491554#0 -247324644#4 -247324644#3 -247324644#2 24648301 24648300#1 24648300#2 -24648303#1 -24648303#0 24491554#0 24491554#1 24491554#2 24491554#3 24491554#4 24491554#5 -24538330#8 -24538330#7 -24538330#6 24538330#6 24538330#7 24538330#8 24538330#9 24538330#10 -24648323#10 -24648323#5 -24648323#3 24648323#3 24648323#4 24648323#7 24554090#0 24554090#3 24554090#4 210051548 207326010#1 207326010#2 27405533#0 27405533#1 27405533#2 27405533#4 442853506 27405537 1046489045#0 1046489045#1 100135462#1"/>
    </vehicle>
    <vehicle id="13" depart="0.13">
        <route edges="-24648325#1 -24648325#0 -120305818#7 -24648329#3 -24648329#2 -24648329#1 -24648329#0 -24648328#1 -24648330 24648323#4 24648323#7 24493964#0 24493964#4 -24493964#4 -24493964#2 -24648323#10 -24648323#5 -24648323#3 -24648323#2 -24648323#1 -24648343#1 700558393#0 700558393#1 700558393#3 -24496517#3 25344960#0 25344960#1 25344960#3 25344960#4 25344960#5 25344960#6 25344960#7 25344960#8 25344960#9 25344960#10 -25344960#10 -25344960#9 -25344960#8 -25344960#7 -25344960#6 -25344960#5 -25344960#4 -25344960#3 -25344960#1 -25344960#0 24496517#3 145247186#0 145247186#1 145247186#2 24648344 23792805#0 23792805#1 23792805#2 23792805#3 -99716349#5 -99716349#4 -99716349#3 -99716349#1 -99716349#0 -24493964#6 -24493964#4 -24493964#2 -24648323#10 -24648323#5 -24648323#3 -24648323#2 -24648323#1 -24648343#1 700558393#0 700558393#1 700558393#3 -24648348#2 24648348#2 -700558393#3 -700558393#1 -700558393#0 24648343#1 -700558392#1 700558392#1 24648323#1 24648323#2 24648323#3 24648323#4 24648323#7 -24538330#12 24648313"/>
    </vehicle>
    <vehicle id="14" depart="0.14">
        <route edges="-24648308 -120305818#0 24491554#0 24491554#1 24491554#2 24491554#3 24491554#4 24491554#5 24491554#6 24491554#7 24491554#8 207326010#4 207326010#1 207326010#2 27405533#0 27405533#1 27405533#2 -27405533#2 -27405533#1 -27405533#0 207326010#3 -24491554#8 -24491554#7 -24491554#6 -24491554#5 -24491554#4 -24491554#3 -24491554#2 -24491554#1 -24491554#0 120305818#0 120305818#2 120305818#3 120305818#4 120305818#5 120305818#6 120305818#7 840540030#0 840540030#1 840540030#2 24648298 256226575#5 256226575#6 256226575#7 256226575#8 700558392#0 700558392#1 24648323#1 24648323#2 24648323#3 24648330 24648328#1 24648329#0 24648329#1 24648329#2 -24648329#2 24648329#2 24648329#3 -120305818#6 -120305818#5 -120305818#4 -120305818#3 -120305818#2 -120305818#0 -247324644#4 -247324644#3 -247324644#2 24648301 -24648300#0 24648300#0 -24648301 247324644#2 247324644#3 247324644#4 120305818#0 120305818#2 120305818#3 120305818#4 120305818#5 120305818#6 120305818#7 840540030#0 840540030#1 840540030#2 24648298 24648331 24648333#0 24648335"/>
    </vehicle>
    <vehicle id="15" depart="0.15">
        <route edges="-24648305#3 24648305#3 24648305#4 24648307 24648306#0 24648306#1 256226575#2 256226575#3 256226575#4 24648331 24648332#0 24648332#1 24648339#0 24648339#1 24648339#2 24648339#3 24648339#4 24648343#0 24648343#1 24648323#1 24648323#2 24648323#3 24648323#4 24648323#7 24493964#0 24493964#4 24493964#6 24491857#0 25202386#0 25202386#1 25202386#2 -25202384#5 -25202384#4 25202383#0 25202383#1 25202385 -24554090#4 24538334#0 24538334#1 24538334#2 -24538330#9 24538330#9 24538330#10 -24648323#10 24494024#0 24494024#1 24648345 23792805#0 25202388#0 25202388#1 -25202388#1 -25202388#0 23792805#1 23792805#2 23792805#3 -99716349#5 -99716349#4 -99716349#3 -99716349#1 -99716349#0 -24493964#6 -24493964#4 -24493964#2 -24648323#10 -24648323#5 -24648323#3 -24648323#2 -24648323#1 254626155#0 254626155#1 254626155#2 254626155#3 24648344 23792805#0 23792805#1 23792805#2 23792805#3 -99716349#5 -99716349#4 -99716349#3 -99716349#1 -99716349#0 24491857#0 24491857#2 24491857#3 24491857#5 -24491857#5"/>
    </vehicle>
    <vehicle id="16" depart="0.16">
        <route edges="24648348#0 24648348#1 24648348#2 -700558393#3 -700558393#1 -700558393#0 24648343#1 -700558392#1 -700558392#0 -256226575#8 -256226575#7 -256226575#6 -256226575#5 24648331 -24648331 256226575#5 256226575#6 256226575#7 256226575#8 700558392#0 700558392#1 24648323#1 24648323#2 24648323#3 24648323#4 24648323#7 -24538330#12 -24538330#9 24491554#6 -24491265#8 -24491265#7 -24491265#6 24491265#6 24491265#7 24491265#8 -24491554#6 -24491554#5 -24491554#4 -24491554#3 -24491554#2 -24491554#1 -24491554#0 120305818#0 24648312#0 24648312#1 24648312#2 24648312#3 24648312#4 -24648312#4 -24648312#3 -24648312#2 -24648312#1 -24648312#0 -120305818#0 24491554#0 24491554#1 24491554#2 24491554#3 24491554#4 24491554#5 24491554#6 24491554#7 24491554#8 207326010#4 207326010#1 207326010#2 27405533#0 27405533#1 24491648#0 24491648#1 -24491857#5 24491857#5 -24491648#1 -24491648#0 27405533#2 27405533#4 24492202 -24491857#9 -24491857#8 -24491857#7 -24491857#5 24492181#0 24492181#1 -25202384#2"/>
    </vehicle>
    <vehicle id="17" depart="0.17">
        <route edges="-27405533#1 -27405533#0 207326010#3 207326010#4 -210051548 -24554090#4 -24554090#3 -24554090#2 -24648323#10 -24648323#5 -24648323#3 -24648323#2 -24648323#1 -24648343#1 -24648343#0 -24648339#4 24648339#4 24648343#0 24648343#1 24648323#1 24648323#2 24648323#3 24648330 24648328#1 24648329#0 24648329#1 24648329#2 24648329#3 -120305818#6 -120305818#5 -120305818#4 -120305818#3 -120305818#2 24648308 -24648308 -120305818#0 24491554#0 24491554#1 24491554#2 24491554#3 24491554#4 24491554#5 24491554#6 24491554#7 24491554#8 207326010#4 207326010#1 207326010#2 27405533#0 27405533#1 27405533#2 27405533#4 442853506 27405537 -24895522#2 -24895522#1 -24895522#0 -27405460#2 -27405460#1 27405460#1 27405460#2 24895522#0 24895522#1 24895522#2 -27405537 -442853506 -27405533#4 -27405533#2 -27405533#1 -27405533#0 207326010#3 -24491554#8 -24491554#7 -24491554#6 -24538330#8 24538330#8 24491554#6 -24491265#8 -24491265#7 -24491265#6 -24491265#5 -24491265#4 -24491265#3 -24491265#2 -24491265#1 24491265#1 24491265#2 24491265#3 24491265#4 24491265#5 24491265#6 24491265#7 24491265#8 -24491554#6 -24491554#5 -24491554#4 -24491554#3 -24491554#2 -24491554#1 -24491554#0 120305818#0 24648308 24648305#1 24648305#2 24648321#5"/>
    </vehicle>
    <vehicle id="18" depart="0.18">
        <route edges="-24648328#1 -24648330 24648323#4 24648323#7 24554090#0 24554090#3 24554090#4 210051548 207326010#1 207326010#2 27405533#0 27405533#1 -27405533#1 -27405533#0 207326010#3 207326010#4 -210051548 -24554090#4 -24554090#3 -24554090#2 -24648323#10 24494024#0 24494024#1 24648345 23792805#0 25202388#0 -25202388#0 23792805#1 23792805#2 23792805#3 -99716349#5 -99716349#4 -99716349#3 -99716349#1 -99716349#0 -24493964#6 -24493964#4 -24493964#2 -24538330#12 -24538330#9 -24491554#5 -24491554#4 -24491554#3 -24491554#2 -24491554#1 -24491554#0 24648303#0 24648303#1 -24648303#1 -24648303#0 24491554#0 24491554#1 24491554#2 24491554#3 24491554#4 24491554#5 -24538330#8 24538330#8 -24491554#5 -24491554#4 -24491554#3 -24491554#2 -24491554#1 -24491554#0 -247324644#4 247324644#4 24491554#0 24491554#1 24491554#2 24491554#3 24491554#4 24491554#5 24491554#6 -24491265#8 -24491265#7 24491410#0 24491505"/>
    </vehicle>
    <vehicle id="19" depart="0.19">
        <route edges="-24648305#4 24648305#4 -24648325#3 -24648325#2 -24648325#1 -24648325#0 840540030#0 840540030#1 840540030#2 24648298 256226575#5 256226575#6 256226575#7 256226575#8 700558392#0 700558392#1 24648323#1 24648323#2 24648323#3 24648323#4 24648323#7 24493964#0 24493964#4 24493964#6 -24493964#6 -24493964#4 -24493964#2 -24648323#10 -24648323#5 -24648323#3 -24648323#2 -24648323#1 -700558392#1 -700558392#0 -256226575#8 -256226575#7 -256226575#6 -256226575#5 -256226575#4 -256226575#3 256226575#3 256226575#4 256226575#5 256226575#6 256226575#7 256226575#8 700558392#0 700558392#1 24648323#1 24648323#2 24648323#3 24648330 24648328#1 24648329#0 24648329#1 24648329#2 24648329#3 -120305818#6 -120305818#5 -120305818#4 -120305818#3 24648321#4 -24648305#2 -24648305#1 -24648308 120305818#2 120305818#3 120305818#4 120305818#5 120305818#6 120305818#7 840540030#0 840540030#1 840540030#2 24648298 256226575#5 256226575#6 256226575#7 256226575#8 700558392#0 700558392#1 -24648343#1 700558393#0 700558393#1 700558393#3 -24496517#3 -24496517#2 -24496517#1 24496517#1 24496517#2 24496517#3 145247186#0 145247186#1 145247186#2 24648344 23792805#0 23792805#1 23792805#2 23792805#3 -99716349#5 -99716349#4 -99716349#3 -99716349#1 -99716349#0 24491857#0 24491857#2 24491857#3 24491857#5 24491857#7 24491857#8 24491857#9 27405528 120305813 27405527 24895522#0 24895522#1 24895522#2 -24895522#2"/>
    </vehicle>
    <vehicle id="20" depart="0.2">
        <route edges="-25344960#8 -25344960#7 -25344960#6 -25344960#5 -25344960#4 -25344960#3 -25344960#1 -25344960#0 24496517#3 -700558393#3 -700558393#1 -700558393#0 24648343#1 -700558392#1 -700558392#0 -256226575#8 -256226575#7 -256226575#6 -256226575#5 256226575#5 256226575#6 256226575#7 256226575#8 700558392#0 700558392#1 24648323#1 24648323#2 24648323#3 24648323#4 24648323#7 24493964#0 24493964#4 24493964#6 24491857#0 24491857#2 24491857#3 24491857#5 24491857#7 24491857#8 24491857#9 27405528 24492317#0 24492317#1 24492317#2 -24492317#2 -24492317#1 -24492317#0 -27405528 -24491857#9 -24491857#8 -24491857#7 -24491857#5 -24491857#3 -24491857#2 -24491857#0 -24493964#6 -24493964#4 -24493964#2 -24648323#10 -24648323#5 -24648323#3 -24648323#2 -24648323#1 -24648343#1 -24648343#0 24648343#0 24648343#1 24648323#1 24648323#2 24648323#3 24648323#4 24648323#7 24493964#0 24493964#4 24493964#6 24491857#0 24491857#2 24491857#3 24491857#5 24492182#0 24492182#1 25202384#2 -24492181#1 -24492181#0 24491857#5 24491857#7 24491857#8 24491857#9 27405528 120305813 27405527 -27405527 -120305813 -27405528 -24491857#9 -24491857#8 -24491857#7 -24491648#1 -24491648#0 -27405533#1 -27405533#0 207326010#3 -24491554#8 -24491554#7 -24491554#6 -24491554#5 -24491554#4 -24491554#3 -24491554#2 -24491554#1 -24491554#0 120305818#0 24648312#0"/>
    </vehicle>
    <vehicle id="21" depart="0.21">
        <route edges="24493964#4 -24493964#4 -24493964#2 -24538330#12 -24538330#9 -24538330#8 -24538330#7 -24538330#6 -24538330#5 -24538330#4 24538330#4 24538330#5 24538330#6 24538330#7 24538330#8 24538330#9 24538330#10 24493964#0 24493964#4 24493964#6 24491857#0 25202386#0 25202386#1 25202386#2 -25202384#5 -25202384#4 -25202384#3 -24492181#1 -24492181#0 24491857#5 24491857#7 24491857#8 24491857#9 27405528 24492317#0 -24492317#0 -27405528 -24491857#9 -24491857#8 -24491857#7 -24491648#1 -24491648#0 -27405533#1 -27405533#0 207326010#3 -24491554#8 -24491554#7 -24491554#6 -24491554#5 -24491554#4 -24491554#3 -24491554#2 -24491554#1 -24491554#0 24491554#0 -24491554#0 -247324644#4 -247324644#3 -247324644#2 247324644#2 247324644#3 247324644#4 120305818#0 120305818#2"/>
    </vehicle>
    <vehicle id="22" depart="0.22">
        <route edges="-24538330#4 24538330#4 24538330#5 24538330#6 24538330#7 24538330#8 -24491554#5 -24491554#4 -24491554#3 -24491554#2 -24491554#1 -24491554#0 120305818#0 120305818#2 120305818#3 120305818#4 120305818#5 120305818#6 120305818#7 840540030#0 840540030#1 840540030#2 24648298 -256226575#4 -256226575#3 -256226575#2 256226575#2 256226575#3 256226575#4 256226575#5 256226575#6 256226575#7 256226575#8 700558392#0 700558392#1 254626155#0 254626155#1 254626155#2 254626155#3 24648344 23792805#0 23792805#1 23792805#2 23792805#3 -99716349#5 -99716349#4 -99716349#3 -99716349#1 -99716349#0 24491857#0 24491857#2 24491857#3 24491857#5 24491857#7 24491857#8 24492201#0 24492201#1 -24492201#1 -24492201#0 -24491857#8 -24491857#7 -24491648#1 -24491648#0 -27405533#1 -27405533#0 207326010#3 207326010#4 -210051548 -24554090#4 24554090#4 -24554090#4 24538334#0 24538334#1 24538334#2 -24538330#9 -24491554#5 -24491554#4 -24491554#3 -24491554#2 -24491554#1 24491554#1 24491554#2 24491554#3 24491554#4 24491554#5 24491554#6 24491554#7 24491554#8 207326010#4 207326010#1 207326010#2 27405533#0 27405533#1 27405533#2 -24491863#3"/>
    </vehicle>
    <vehicle id="23" depart="0.23">
        <route edges="24648340#0 -24648340#0 24648343#0 24648343#1 24648323#1 24648323#2 24648323#3 24648323#4 24648323#7 24493964#0 24493964#4 24493964#6 24491857#0 24491857#2 24491857#3 -25202380#3 -25202380#2 25202380#2 25202380#3 -24491857#3 -24491857#2 -24491857#0 -24493964#6 -24493964#4 -24493964#2 -24648323#10 -24648323#5 -24648323#3 -24648323#2 -24648323#1 -24648343#1 700558393#0 700558393#1 700558393#3 -700558393#3 700558393#3 145247186#0 145247186#1 145247186#2 24648344 23792805#0 23792805#1 23792805#2 23792805#3 -99716349#5 -99716349#4 -99716349#3 -99716349#1 -99716349#0 -24493964#6 -24493964#4 -24493964#2 -24538330#12 -24538330#9 24491554#6 24491554#7 24491554#8 207326010#4 207326010#1 207326010#2 27405533#0 27405533#1 24491648#0 24491648#1 24491857#7 24491857#8 24491857#9 27405528 24492317#0 24492317#1 25202384#0 25202384#1 -25202384#1 -24492201#1 -24492201#0 -24491857#8 -24491857#7 -24491648#1 -24491648#0 -27405533#1 -27405533#0 207326010#3 -24491554#8 -24491554#7 -24491554#6 -24491554#5 -24491554#4 -24491554#3 -24491554#2 -24491554#1 -24491554#0 120305818#0 120305818#2 -24648321#3 -24648321#2 -24648321#1 -24648321#0 24648326"/>
    </vehicle>
    <vehicle id="24" depart="0.24">
        <route edges="256226575#5 256226575#6 256226575#7 256226575#8 700558392#0 700558392#1 24648323#1 24648323#2 24648323#3 24648330 24648328#1 24648329#0 24648329#1 24648329#2 24648329#3 -120305818#6 -120305818#5 -120305818#4 -120305818#3 -120305818#2 24648308 24648305#1 24648305#2 24648305#3 24648305#4 24648307 24648306#0 24648306#1 256226575#2 256226575#3 256226575#4 256226575#5 256226575#6 256226575#7 256226575#8 700558392#0 700558392#1 -24648343#1 700558393#0 700558393#1 700558393#3 -24496517#3 25344960#0 25344960#1 25344960#3 25344960#4 -25344960#4 -25344960#3 -25344960#1 -25344960#0 24496517#3 -24648348#2 -24648348#1 24648348#1 24648348#2 145247186#0 145247186#1 145247186#2 24648344 23792805#0 23792805#1 23792805#2 23792805#3 -99716349#5 -99716349#4 -99716349#3 -99716349#1 -99716349#0 -24493964#6 -24493964#4 -24493964#2 -24538330#12 -24538330#9 -24538330#8 -24538330#7 -24538330#6 -24538330#5 -24538330#4 24538330#4 24538330#5 24538330#6 24538330#7 -24538330#7 24538330#7 24538330#8 -24491554#5 -24491554#4 -24491554#3 -24491554#2 -24491554#1 -24491554#0 120305818#0 120305818#2 120305818#3 120305818#4 120305818#5 120305818#6 120305818#7 840540030#0 840540030#1 840540030#2 24648298 24648331 24648333#0 24648335 -24648336"/>
    </vehicle>
    <vehicle id="25" depart="0.25">
        <route edges="840540030#1 840540030#2 24648298 256226575#5 256226575#6 256226575#7 256226575#8 700558392#0 700558392#1 24648323#1 24648323#2 24648323#3 24648323#4 24648323#7 -24538330#12 -24538330#9 24538330#9 24538330#10 24493964#0 24493964#4 24493964#6 99716349#0 99716349#1 -99716349#1 -99716349#0 -24493964#6 -24493964#4 -24493964#2 -24648323#10 -24648323#5 24648330 24648328#1 24648329#0 24648329#1 24648329#2 24648329#3 -120305818#6 24648324#0 24648305#4 -24648305#4 -24648305#3 -24648305#2 -24648305#1 -24648305#0 24648303#1 -24648300#2 -24648300#1 -24648301 -247324644#1 247324644#1 247324644#2 247324644#3 247324644#4 120305818#0 120305818#2 120305818#3 120305818#4 120305818#5 120305818#6 120305818#7 840540030#0 840540030#1 840540030#2 24648298 256226575#5 256226575#6 256226575#7 256226575#8 700558392#0 700558392#1 -24648343#1 700558393#0 700558393#1 700558393#3 -24496517#3 25344960#0 25344960#1 25344960#3 25344960#4 25344960#5 25344960#6 -25344960#6 -25344960#5 -25344960#4 -25344960#3 -25344960#1 -25344960#0 24496517#3 145247186#0 145247186#1 145247186#2 24648344 23792805#0 23792805#1 23792805#2 23792805#3 -99716349#5 -99716349#4 -99716349#3 -99716349#1 -99716349#0 24491857#0 -375912436#3 -375912436#2 -375912436#1 375912436#1"/>
    </vehicle>