<?xml version="1.0" encoding="UTF-8"?>

<!-- generated on Wed Jun 22 19:09:02 2022 by SUMO netconvert Version 0.32.0
<?xml version="1.0" encoding="UTF-8"?>

<configuration xmlns:xsi="http://www.w3.org/2001/XMLSchema-instance" xsi:noNamespaceSchemaLocation="http://sumo.dlr.de/xsd/netconvertConfiguration.xsd">

    <input>
        <osm-files value="map.osm"/>
    </input>

    <output>
        <output-file value="colonia.net.xml"/>
    </output>

    <projection>
        <proj.utm value="true"/>
    </projection>

    <tls_building>
        <tls.discard-simple value="true"/>
        <tls.join value="true"/>
        <tls.guess-signals value="true"/>
        <tls.default-type value="actuated"/>
    </tls_building>

    <ramp_guessing>
        <ramps.guess value="true"/>
    </ramp_guessing>

    <processing>
        <geometry.remove value="true"/>
        <roundabouts.guess value="true"/>
        <junctions.join value="true"/>
    </processing>

</configuration>
-->

<net version="0.27" xmlns:xsi="http://www.w3.org/2001/XMLSchema-instance" xsi:noNamespaceSchemaLocation="http://sumo.dlr.de/xsd/net_file.xsd">

    <location netOffset="-348812.02,-5643772.44" convBoundary="0.00,0.00,1961.57,1742.78" origBoundary="6.848268,50.926265,6.876611,50.941446" projParameter="+proj=utm +zone=32 +ellps=WGS84 +datum=WGS84 +units=m +no_defs"/>

    <type id="highway.bridleway" priority="1" numLanes="1" speed="2.78" allow="pedestrian" oneway="1" width="2.00"/>
    <type id="highway.bus_guideway" priority="1" numLanes="1" speed="8.33" allow="bus" oneway="1"/>
    <type id="highway.cycleway" priority="1" numLanes="1" speed="5.56" allow="bicycle" oneway="0" width="1.00"/>
    <type id="highway.footway" priority="1" numLanes="1" speed="2.78" allow="pedestrian" oneway="1" width="2.00"/>
    <type id="highway.ford" priority="1" numLanes="1" speed="2.78" allow="army" oneway="0"/>
    <type id="highway.living_street" priority="3" numLanes="1" speed="2.78" disallow="tram rail_urban rail rail_electric ship" oneway="0"/>
    <type id="highway.motorway" priority="13" numLanes="2" speed="44.44" allow="private emergency authority army vip passenger hov taxi bus coach delivery truck trailer motorcycle evehicle custom1 custom2" oneway="1"/>
    <type id="highway.motorway_link" priority="12" numLanes="1" speed="22.22" allow="private emergency authority army vip passenger hov taxi bus coach delivery truck trailer motorcycle evehicle custom1 custom2" oneway="1"/>
    <type id="highway.path" priority="1" numLanes="1" speed="2.78" allow="bicycle pedestrian" oneway="1" width="2.00"/>
    <type id="highway.pedestrian" priority="1" numLanes="1" speed="2.78" allow="pedestrian" oneway="1" width="2.00"/>
    <type id="highway.primary" priority="9" numLanes="2" speed="27.78" disallow="tram rail_urban rail rail_electric ship" oneway="0"/>
    <type id="highway.primary_link" priority="8" numLanes="1" speed="22.22" disallow="tram rail_urban rail rail_electric ship" oneway="0"/>
    <type id="highway.raceway" priority="14" numLanes="2" speed="83.33" allow="vip" oneway="0"/>
    <type id="highway.residential" priority="4" numLanes="1" speed="13.89" disallow="tram rail_urban rail rail_electric ship" oneway="0"/>
    <type id="highway.secondary" priority="7" numLanes="2" speed="27.78" disallow="tram rail_urban rail rail_electric ship" oneway="0"/>
    <type id="highway.secondary_link" priority="6" numLanes="1" speed="22.22" disallow="tram rail_urban rail rail_electric ship" oneway="0"/>
    <type id="highway.service" priority="2" numLanes="1" speed="5.56" allow="delivery bicycle pedestrian" oneway="0"/>
    <type id="highway.services" priority="1" numLanes="1" speed="8.33" disallow="tram rail_urban rail rail_electric ship" oneway="0"/>
    <type id="highway.stairs" priority="1" numLanes="1" speed="1.39" allow="pedestrian" oneway="1" width="2.00"/>
    <type id="highway.step" priority="1" numLanes="1" speed="1.39" allow="pedestrian" oneway="1" width="2.00"/>
    <type id="highway.steps" priority="1" numLanes="1" speed="1.39" allow="pedestrian" oneway="1" width="2.00"/>
    <type id="highway.tertiary" priority="6" numLanes="1" speed="22.22" disallow="tram rail_urban rail rail_electric ship" oneway="0"/>
    <type id="highway.tertiary_link" priority="5" numLanes="1" speed="22.22" disallow="tram rail_urban rail rail_electric ship" oneway="0"/>
    <type id="highway.track" priority="1" numLanes="1" speed="5.56" disallow="tram rail_urban rail rail_electric ship" oneway="0"/>
    <type id="highway.trunk" priority="11" numLanes="2" speed="27.78" disallow="tram rail_urban rail rail_electric bicycle pedestrian ship" oneway="0"/>
    <type id="highway.trunk_link" priority="10" numLanes="1" speed="22.22" disallow="tram rail_urban rail rail_electric bicycle pedestrian ship" oneway="0"/>
    <type id="highway.unclassified" priority="5" numLanes="1" speed="13.89" disallow="tram rail_urban rail rail_electric ship" oneway="0"/>
    <type id="highway.unsurfaced" priority="1" numLanes="1" speed="8.33" disallow="tram rail_urban rail rail_electric ship" oneway="0"/>
    <type id="railway.light_rail" priority="15" numLanes="1" speed="27.78" allow="rail_urban" oneway="1"/>
    <type id="railway.preserved" priority="15" numLanes="1" speed="27.78" allow="rail" oneway="1"/>
    <type id="railway.rail" priority="15" numLanes="1" speed="83.33" allow="rail rail_electric" oneway="1"/>
    <type id="railway.subway" priority="15" numLanes="1" speed="27.78" allow="rail_urban" oneway="1"/>
    <type id="railway.tram" priority="15" numLanes="1" speed="13.89" allow="tram" oneway="1"/>

    <edge id=":1145560254_0" function="internal">
        <lane id=":1145560254_0_0" index="0" allow="bicycle pedestrian" speed="2.78" length="5.25" width="2.00" shape="1381.55,487.12 1386.78,486.70"/>
    </edge>
    <edge id=":1145623474_0" function="internal">
        <lane id=":1145623474_0_0" index="0" disallow="tram rail_urban rail rail_electric ship" speed="8.33" length="5.07" shape="1382.30,679.72 1377.23,679.70"/>
    </edge>
    <edge id=":1145623474_1" function="internal">
        <lane id=":1145623474_1_0" index="0" disallow="tram rail_urban rail rail_electric ship" speed="8.33" length="2.41" shape="1382.30,679.72 1381.06,678.89 1380.66,678.06"/>
    </edge>
    <edge id=":1145623474_4" function="internal">
        <lane id=":1145623474_4_0" index="0" speed="8.33" length="2.41" shape="1380.66,678.06 1381.07,677.24 1382.32,676.42"/>
    </edge>
    <edge id=":1145623474_2" function="internal">
        <lane id=":1145623474_2_0" index="0" disallow="tram rail_urban rail rail_electric ship" speed="8.33" length="5.08" shape="1377.24,676.40 1382.32,676.42"/>
    </edge>
    <edge id=":1145623474_3" function="internal">
        <lane id=":1145623474_3_0" index="0" disallow="tram rail_urban rail rail_electric ship" speed="8.33" length="2.41" shape="1377.24,676.40 1378.47,677.23 1378.88,678.05"/>
    </edge>
    <edge id=":1145623474_5" function="internal">
        <lane id=":1145623474_5_0" index="0" speed="8.33" length="2.41" shape="1378.88,678.05 1378.47,678.88 1377.23,679.70"/>
    </edge>
    <edge id=":12688346_0" function="internal">
        <lane id=":12688346_0_0" index="0" allow="private emergency authority army vip passenger hov taxi bus coach delivery truck trailer motorcycle evehicle custom1 custom2" speed="18.06" length="0.29" shape="100.14,1182.87 100.20,1183.14"/>
        <lane id=":12688346_0_1" index="1" allow="private emergency authority army vip passenger hov taxi bus coach delivery truck trailer motorcycle evehicle custom1 custom2" speed="18.06" length="0.29" shape="96.93,1183.63 97.00,1183.93"/>
    </edge>
    <edge id=":1586838820_0" function="internal">
        <lane id=":1586838820_0_0" index="0" disallow="tram rail_urban rail rail_electric ship" speed="13.89" length="4.82" shape="545.85,263.61 546.89,262.55 547.78,262.29 548.51,262.85 549.10,264.21"/>
    </edge>
    <edge id=":1586838826_0" function="internal">
        <lane id=":1586838826_0_0" index="0" disallow="tram rail_urban rail rail_electric ship" speed="22.22" length="4.74" shape="655.73,501.28 655.59,496.54"/>
    </edge>
    <edge id=":1586838826_1" function="internal">
        <lane id=":1586838826_1_0" index="0" disallow="tram rail_urban rail rail_electric ship" speed="22.22" length="2.41" shape="655.73,501.28 656.55,500.04 657.37,499.62"/>
    </edge>
    <edge id=":1586838826_4" function="internal">
        <lane id=":1586838826_4_0" index="0" speed="22.22" length="2.41" shape="657.37,499.62 658.20,500.03 659.03,501.26"/>
    </edge>
    <edge id=":1586838826_2" function="internal">
        <lane id=":1586838826_2_0" index="0" disallow="tram rail_urban rail rail_electric ship" speed="22.22" length="4.92" shape="658.89,496.35 659.03,501.26"/>
    </edge>
    <edge id=":1586838826_3" function="internal">
        <lane id=":1586838826_3_0" index="0" disallow="tram rail_urban rail rail_electric ship" speed="22.22" length="2.52" shape="658.89,496.35 658.14,497.63 657.34,498.09 657.24,498.05"/>
    </edge>
    <edge id=":1586838826_5" function="internal">
        <lane id=":1586838826_5_0" index="0" speed="22.22" length="2.30" shape="657.24,498.05 656.49,497.73 655.59,496.54"/>
    </edge>
    <edge id=":1624523786_0" function="internal">
        <lane id=":1624523786_0_0" index="0" disallow="tram rail_urban rail rail_electric ship" speed="13.89" length="4.82" shape="106.83,212.54 108.31,212.71 109.05,213.25 109.06,214.17 108.34,215.47"/>
    </edge>
    <edge id=":1624523843_0" function="internal">
        <lane id=":1624523843_0_0" index="0" disallow="tram rail_urban rail rail_electric ship" speed="13.89" length="4.82" shape="128.42,292.23 129.38,291.09 130.25,290.78 131.02,291.28 131.70,292.61"/>
    </edge>
    <edge id=":1624523857_0" function="internal">
        <lane id=":1624523857_0_0" index="0" disallow="tram rail_urban rail rail_electric ship" speed="13.89" length="6.57" shape="121.32,366.39 120.14,367.94 119.27,368.98 118.23,369.82 116.56,370.79"/>
    </edge>
    <edge id=":1624523857_1" function="internal">
        <lane id=":1624523857_1_0" index="0" disallow="tram rail_urban rail rail_electric ship" speed="13.89" length="2.21" shape="121.32,366.39 119.86,366.88 119.21,366.75"/>
    </edge>
    <edge id=":1624523857_4" function="internal">
        <lane id=":1624523857_4_0" index="0" speed="13.89" length="2.77" shape="119.21,366.75 118.93,366.70 118.52,365.84 118.62,364.31"/>
    </edge>
    <edge id=":1624523857_2" function="internal">
        <lane id=":1624523857_2_0" index="0" disallow="tram rail_urban rail rail_electric ship" speed="13.89" length="5.26" shape="115.02,367.87 116.40,367.15 117.33,366.53 118.00,365.70 118.62,364.31"/>
    </edge>
    <edge id=":1624523857_3" function="internal">
        <lane id=":1624523857_3_0" index="0" disallow="tram rail_urban rail rail_electric ship" speed="13.89" length="2.41" shape="115.02,367.87 116.50,368.02 117.25,368.56"/>
    </edge>
    <edge id=":1624523857_5" function="internal">
        <lane id=":1624523857_5_0" index="0" speed="13.89" length="2.41" shape="117.25,368.56 117.27,369.48 116.56,370.79"/>
    </edge>
    <edge id=":1952400657_0" function="internal">
        <lane id=":1952400657_0_0" index="0" disallow="tram rail_urban rail rail_electric ship" speed="13.89" length="5.33" shape="1263.73,478.84 1263.67,484.16"/>
    </edge>
    <edge id=":1952400657_1" function="internal">
        <lane id=":1952400657_1_0" index="0" disallow="tram rail_urban rail rail_electric ship" speed="13.89" length="2.41" shape="1263.73,478.84 1262.89,480.06 1262.06,480.46"/>
    </edge>
    <edge id=":1952400657_4" function="internal">
        <lane id=":1952400657_4_0" index="0" speed="13.89" length="2.41" shape="1262.06,480.46 1261.24,480.04 1260.43,478.79"/>
    </edge>
    <edge id=":1952400657_2" function="internal">
        <lane id=":1952400657_2_0" index="0" disallow="tram rail_urban rail rail_electric ship" speed="13.89" length="5.34" shape="1260.37,484.13 1260.43,478.79"/>
    </edge>
    <edge id=":1952400657_3" function="internal">
        <lane id=":1952400657_3_0" index="0" disallow="tram rail_urban rail rail_electric ship" speed="13.89" length="2.41" shape="1260.37,484.13 1261.20,482.90 1262.03,482.50"/>
    </edge>
    <edge id=":1952400657_5" function="internal">
        <lane id=":1952400657_5_0" index="0" speed="13.89" length="2.41" shape="1262.03,482.50 1262.85,482.92 1263.67,484.16"/>
    </edge>
    <edge id=":1952400659_0" function="internal">
        <lane id=":1952400659_0_0" index="0" disallow="tram rail_urban rail rail_electric ship" speed="13.89" length="5.42" shape="1164.26,481.91 1164.09,487.33"/>
    </edge>
    <edge id=":1952400659_1" function="internal">
        <lane id=":1952400659_1_0" index="0" disallow="tram rail_urban rail rail_electric ship" speed="13.89" length="2.41" shape="1164.26,481.91 1163.39,483.12 1162.56,483.51"/>
    </edge>
    <edge id=":1952400659_4" function="internal">
        <lane id=":1952400659_4_0" index="0" speed="13.89" length="2.41" shape="1162.56,483.51 1161.75,483.07 1160.96,481.81"/>
    </edge>
    <edge id=":1952400659_2" function="internal">
        <lane id=":1952400659_2_0" index="0" disallow="tram rail_urban rail rail_electric ship" speed="13.89" length="5.42" shape="1160.79,487.23 1160.96,481.81"/>
    </edge>
    <edge id=":1952400659_3" function="internal">
        <lane id=":1952400659_3_0" index="0" disallow="tram rail_urban rail rail_electric ship" speed="13.89" length="2.41" shape="1160.79,487.23 1161.65,486.02 1162.49,485.63"/>
    </edge>
    <edge id=":1952400659_5" function="internal">
        <lane id=":1952400659_5_0" index="0" speed="13.89" length="2.41" shape="1162.49,485.63 1163.30,486.07 1164.09,487.33"/>
    </edge>
    <edge id=":1952400660_0" function="internal">
        <lane id=":1952400660_0_0" index="0" disallow="tram rail_urban rail rail_electric ship" speed="13.89" length="5.42" shape="1068.50,485.32 1068.38,490.74"/>
    </edge>
    <edge id=":1952400660_1" function="internal">
        <lane id=":1952400660_1_0" index="0" disallow="tram rail_urban rail rail_electric ship" speed="13.89" length="2.41" shape="1068.50,485.32 1067.66,486.55 1066.83,486.95"/>
    </edge>
    <edge id=":1952400660_4" function="internal">
        <lane id=":1952400660_4_0" index="0" speed="13.89" length="2.41" shape="1066.83,486.95 1066.01,486.53 1065.20,485.28"/>
    </edge>
    <edge id=":1952400660_2" function="internal">
        <lane id=":1952400660_2_0" index="0" disallow="tram rail_urban rail rail_electric ship" speed="13.89" length="5.36" shape="1065.08,490.64 1065.20,485.28"/>
    </edge>
    <edge id=":1952400660_3" function="internal">
        <lane id=":1952400660_3_0" index="0" disallow="tram rail_urban rail rail_electric ship" speed="13.89" length="2.41" shape="1065.08,490.64 1065.94,489.42 1066.78,489.04"/>
    </edge>
    <edge id=":1952400660_5" function="internal">
        <lane id=":1952400660_5_0" index="0" speed="13.89" length="2.41" shape="1066.78,489.04 1067.59,489.47 1068.38,490.74"/>
    </edge>
    <edge id=":1952400661_0" function="internal">
        <lane id=":1952400661_0_0" index="0" disallow="tram rail_urban rail rail_electric ship" speed="13.89" length="5.32" shape="977.38,488.95 977.31,494.26"/>
    </edge>
    <edge id=":1952400661_1" function="internal">
        <lane id=":1952400661_1_0" index="0" disallow="tram rail_urban rail rail_electric ship" speed="13.89" length="2.41" shape="977.38,488.95 976.54,490.17 975.71,490.58"/>
    </edge>
    <edge id=":1952400661_4" function="internal">
        <lane id=":1952400661_4_0" index="0" speed="13.89" length="2.41" shape="975.71,490.58 974.89,490.15 974.08,488.91"/>
    </edge>
    <edge id=":1952400661_2" function="internal">
        <lane id=":1952400661_2_0" index="0" disallow="tram rail_urban rail rail_electric ship" speed="13.89" length="5.32" shape="974.01,494.22 974.08,488.91"/>
    </edge>
    <edge id=":1952400661_3" function="internal">
        <lane id=":1952400661_3_0" index="0" disallow="tram rail_urban rail rail_electric ship" speed="13.89" length="2.41" shape="974.01,494.22 974.85,492.99 975.68,492.59"/>
    </edge>
    <edge id=":1952400661_5" function="internal">
        <lane id=":1952400661_5_0" index="0" speed="13.89" length="2.41" shape="975.68,492.59 976.50,493.01 977.31,494.26"/>
    </edge>
    <edge id=":1952400663_0" function="internal">
        <lane id=":1952400663_0_0" index="0" disallow="tram rail_urban rail rail_electric ship" speed="8.33" length="5.21" shape="881.65,497.17 881.57,491.96"/>
    </edge>
    <edge id=":1952400663_1" function="internal">
        <lane id=":1952400663_1_0" index="0" disallow="tram rail_urban rail rail_electric ship" speed="8.33" length="2.41" shape="881.65,497.17 882.42,495.91 883.23,495.46"/>
    </edge>
    <edge id=":1952400663_4" function="internal">
        <lane id=":1952400663_4_0" index="0" speed="8.33" length="2.41" shape="883.23,495.46 884.07,495.85 884.94,497.05"/>
    </edge>
    <edge id=":1952400663_2" function="internal">
        <lane id=":1952400663_2_0" index="0" disallow="tram rail_urban rail rail_electric ship" speed="8.33" length="5.07" shape="884.87,491.98 884.94,497.05"/>
    </edge>
    <edge id=":1952400663_3" function="internal">
        <lane id=":1952400663_3_0" index="0" disallow="tram rail_urban rail rail_electric ship" speed="8.33" length="2.41" shape="884.87,491.98 884.04,493.21 883.21,493.62"/>
    </edge>
    <edge id=":1952400663_5" function="internal">
        <lane id=":1952400663_5_0" index="0" speed="8.33" length="2.41" shape="883.21,493.62 882.39,493.20 881.57,491.96"/>
    </edge>
    <edge id=":1952400664_0" function="internal">
        <lane id=":1952400664_0_0" index="0" disallow="tram rail_urban rail rail_electric ship" speed="8.33" length="5.27" shape="799.84,495.12 799.81,500.39"/>
    </edge>
    <edge id=":1952400664_1" function="internal">
        <lane id=":1952400664_1_0" index="0" disallow="tram rail_urban rail rail_electric ship" speed="8.33" length="2.41" shape="799.84,495.12 799.00,496.35 798.18,496.75"/>
    </edge>
    <edge id=":1952400664_4" function="internal">
        <lane id=":1952400664_4_0" index="0" speed="8.33" length="2.41" shape="798.18,496.75 797.35,496.33 796.54,495.09"/>
    </edge>
    <edge id=":1952400664_2" function="internal">
        <lane id=":1952400664_2_0" index="0" disallow="tram rail_urban rail rail_electric ship" speed="8.33" length="5.29" shape="796.51,500.38 796.54,495.09"/>
    </edge>
    <edge id=":1952400664_3" function="internal">
        <lane id=":1952400664_3_0" index="0" disallow="tram rail_urban rail rail_electric ship" speed="8.33" length="2.41" shape="796.51,500.38 797.34,499.14 798.16,498.73"/>
    </edge>
    <edge id=":1952400664_5" function="internal">
        <lane id=":1952400664_5_0" index="0" speed="8.33" length="2.41" shape="798.16,498.73 798.99,499.15 799.81,500.39"/>
    </edge>
    <edge id=":2175185786_0" function="internal">
        <lane id=":2175185786_0_0" index="0" disallow="tram rail_urban rail rail_electric ship" speed="6.95" length="6.38" shape="997.69,665.38 999.02,666.72 999.77,667.83 1000.58,668.85 1002.10,669.90"/>
    </edge>
    <edge id=":2175185786_1" function="internal">
        <lane id=":2175185786_1_0" index="0" allow="delivery bicycle pedestrian" speed="6.95" length="4.07" shape="996.38,670.86 997.16,670.49 997.30,669.88 996.78,669.03 995.61,667.95"/>
    </edge>
    <edge id=":2175185786_2" function="internal">
        <lane id=":2175185786_2_0" index="0" disallow="tram rail_urban rail rail_electric ship" speed="8.33" length="6.08" shape="996.38,670.86 998.11,670.25 999.34,669.63 1000.53,669.39 1002.10,669.90"/>
    </edge>
    <edge id=":2175185794_0" function="internal">
        <lane id=":2175185794_0_0" index="0" disallow="tram rail_urban rail rail_electric ship" speed="8.33" length="4.13" shape="996.51,678.45 993.27,675.90"/>
    </edge>
    <edge id=":2175185794_1" function="internal">
        <lane id=":2175185794_1_0" index="0" disallow="tram rail_urban rail rail_electric ship" speed="8.33" length="7.56" shape="996.51,678.45 996.19,670.90"/>
    </edge>
    <edge id=":2175185794_2" function="internal">
        <lane id=":2175185794_2_0" index="0" disallow="tram rail_urban rail rail_electric ship" speed="8.33" length="3.43" shape="993.33,672.60 994.25,672.39 994.77,671.90 995.29,671.32 996.19,670.90"/>
    </edge>
    <edge id=":2175185795_0" function="internal">
        <lane id=":2175185795_0_0" index="0" disallow="tram rail_urban rail rail_electric ship" speed="8.33" length="3.26" shape="1006.90,676.26 1004.42,678.38"/>
    </edge>
    <edge id=":2175185795_1" function="internal">
        <lane id=":2175185795_1_0" index="0" disallow="tram rail_urban rail rail_electric ship" speed="8.33" length="3.96" shape="1003.64,670.72 1006.91,672.96"/>
    </edge>
    <edge id=":2175185795_2" function="internal">
        <lane id=":2175185795_2_0" index="0" disallow="tram rail_urban rail rail_electric ship" speed="8.33" length="14.98" shape="1003.64,670.72 1008.41,673.71 1010.13,675.99 1008.80,677.54 1004.42,678.38"/>
    </edge>
    <edge id=":2175185805_0" function="internal">
        <lane id=":2175185805_0_0" index="0" disallow="tram rail_urban rail rail_electric ship" speed="8.33" length="5.07" shape="1002.39,683.98 1002.27,689.04"/>
    </edge>
    <edge id=":2175185805_1" function="internal">
        <lane id=":2175185805_1_0" index="0" disallow="tram rail_urban rail rail_electric ship" speed="8.33" length="2.41" shape="1002.39,683.98 1001.52,685.18 1000.68,685.56"/>
    </edge>
    <edge id=":2175185805_4" function="internal">
        <lane id=":2175185805_4_0" index="0" speed="8.33" length="2.41" shape="1000.68,685.56 999.87,685.11 999.09,683.84"/>
    </edge>
    <edge id=":2175185805_2" function="internal">
        <lane id=":2175185805_2_0" index="0" disallow="tram rail_urban rail rail_electric ship" speed="8.33" length="5.19" shape="998.97,689.03 999.09,683.84"/>
    </edge>
    <edge id=":2175185805_3" function="internal">
        <lane id=":2175185805_3_0" index="0" disallow="tram rail_urban rail rail_electric ship" speed="8.33" length="2.41" shape="998.97,689.03 999.80,687.80 1000.62,687.39"/>
    </edge>
    <edge id=":2175185805_5" function="internal">
        <lane id=":2175185805_5_0" index="0" speed="8.33" length="2.41" shape="1000.62,687.39 1001.45,687.80 1002.27,689.04"/>
    </edge>
    <edge id=":2197627993_0" function="internal">
        <lane id=":2197627993_0_0" index="0" disallow="tram rail_urban rail rail_electric ship" speed="13.89" length="4.55" shape="555.80,649.66 554.85,648.72 554.28,647.99 553.85,647.16 553.27,645.94"/>
    </edge>
    <edge id=":2197628001_0" function="internal">
        <lane id=":2197628001_0_0" index="0" disallow="tram rail_urban rail rail_electric ship" speed="13.89" length="4.82" shape="530.16,653.92 531.56,654.41 532.16,655.11 531.96,656.01 530.97,657.12"/>
    </edge>
    <edge id=":2201887011_0" function="internal">
        <lane id=":2201887011_0_0" index="0" disallow="tram rail_urban rail rail_electric ship" speed="8.33" length="5.03" shape="848.58,674.96 847.24,675.17 846.28,675.77 845.68,676.76 845.46,678.14"/>
    </edge>
    <edge id=":2201887011_1" function="internal">
        <lane id=":2201887011_1_0" index="0" disallow="tram rail_urban rail rail_electric ship" speed="8.33" length="6.18" shape="848.58,674.96 842.40,674.99"/>
    </edge>
    <edge id=":2201887011_2" function="internal">
        <lane id=":2201887011_2_0" index="0" disallow="tram rail_urban rail rail_electric ship" speed="8.33" length="4.82" shape="848.58,674.96 847.33,674.15 846.91,673.33 847.31,672.50 848.54,671.66"/>
    </edge>
    <edge id=":2201887011_3" function="internal">
        <lane id=":2201887011_3_0" index="0" disallow="tram rail_urban rail rail_electric ship" speed="8.33" length="6.13" shape="842.41,671.69 848.54,671.66"/>
    </edge>
    <edge id=":2201887011_4" function="internal">
        <lane id=":2201887011_4_0" index="0" disallow="tram rail_urban rail rail_electric ship" speed="8.33" length="7.91" shape="842.41,671.69 843.80,672.10 844.78,673.31 845.33,675.32 845.46,678.14"/>
    </edge>
    <edge id=":2201887011_5" function="internal">
        <lane id=":2201887011_5_0" index="0" disallow="tram rail_urban rail rail_electric ship" speed="8.33" length="4.82" shape="842.41,671.69 843.64,672.52 844.05,673.35 843.64,674.17 842.40,674.99"/>
    </edge>
    <edge id=":2301288587_0" function="internal">
        <lane id=":2301288587_0_0" index="0" disallow="tram rail_urban rail rail_electric ship" speed="8.33" length="5.14" shape="400.32,1238.65 395.19,1238.97"/>
    </edge>
    <edge id=":2301288587_1" function="internal">
        <lane id=":2301288587_1_0" index="0" disallow="tram rail_urban rail rail_electric ship" speed="8.33" length="2.41" shape="400.32,1238.65 399.02,1237.92 398.55,1237.13"/>
    </edge>
    <edge id=":2301288587_4" function="internal">
        <lane id=":2301288587_4_0" index="0" speed="8.33" length="2.41" shape="398.55,1237.13 398.89,1236.27 400.06,1235.36"/>
    </edge>
    <edge id=":2301288587_2" function="internal">
        <lane id=":2301288587_2_0" index="0" disallow="tram rail_urban rail rail_electric ship" speed="8.33" length="5.05" shape="395.03,1235.68 400.06,1235.36"/>
    </edge>
    <edge id=":2301288587_3" function="internal">
        <lane id=":2301288587_3_0" index="0" disallow="tram rail_urban rail rail_electric ship" speed="8.33" length="2.41" shape="395.03,1235.68 396.30,1236.44 396.76,1237.24"/>
    </edge>
    <edge id=":2301288587_5" function="internal">
        <lane id=":2301288587_5_0" index="0" speed="8.33" length="2.41" shape="396.76,1237.24 396.38,1238.09 395.19,1238.97"/>
    </edge>
    <edge id=":2301288603_0" function="internal">
        <lane id=":2301288603_0_0" index="0" disallow="tram rail_urban rail rail_electric ship" speed="8.33" length="4.97" shape="398.40,1070.74 393.44,1070.98"/>
    </edge>
    <edge id=":2337171964_0" function="internal">
        <lane id=":2337171964_0_0" index="0" allow="delivery bicycle pedestrian" speed="6.95" length="5.06" shape="948.90,964.77 947.75,964.04 946.63,963.86 945.53,964.22 944.47,965.14"/>
    </edge>
    <edge id=":2337171964_1" function="internal">
        <lane id=":2337171964_1_0" index="0" disallow="tram rail_urban rail rail_electric ship" speed="8.33" length="9.50" shape="948.90,964.77 941.71,958.57"/>
    </edge>
    <edge id=":2337171964_2" function="internal">
        <lane id=":2337171964_2_0" index="0" disallow="tram rail_urban rail rail_electric ship" speed="8.33" length="2.41" shape="948.90,964.77 948.50,963.33 948.72,962.44"/>
    </edge>
    <edge id=":2337171964_9" function="internal">
        <lane id=":2337171964_9_0" index="0" speed="8.33" length="2.41" shape="948.72,962.44 949.57,962.08 951.05,962.26"/>
    </edge>
    <edge id=":2337171964_3" function="internal">
        <lane id=":2337171964_3_0" index="0" disallow="tram rail_urban rail rail_electric ship" speed="8.33" length="9.48" shape="943.86,956.07 951.05,962.26"/>
    </edge>
    <edge id=":2337171964_4" function="internal">
        <lane id=":2337171964_4_0" index="0" allow="delivery bicycle pedestrian" speed="6.95" length="5.19" shape="943.86,956.07 945.73,958.22 946.46,960.45"/>
    </edge>
    <edge id=":2337171964_5" function="internal">
        <lane id=":2337171964_5_0" index="0" disallow="tram rail_urban rail rail_electric ship" speed="8.33" length="2.41" shape="943.86,956.07 944.26,957.51 944.03,958.40"/>
    </edge>
    <edge id=":2337171964_10" function="internal">
        <lane id=":2337171964_10_0" index="0" speed="6.95" length="5.19" shape="946.46,960.45 946.04,962.76 944.47,965.14"/>
    </edge>
    <edge id=":2337171964_11" function="internal">
        <lane id=":2337171964_11_0" index="0" speed="8.33" length="2.41" shape="944.03,958.40 943.18,958.76 941.71,958.57"/>
    </edge>
    <edge id=":2337171964_6" function="internal">
        <lane id=":2337171964_6_0" index="0" disallow="tram rail_urban rail rail_electric ship" speed="6.95" length="5.02" shape="942.00,962.95 942.75,961.80 942.96,960.69 942.61,959.61 941.71,958.57"/>
    </edge>
    <edge id=":2337171964_7" function="internal">
        <lane id=":2337171964_7_0" index="0" disallow="tram rail_urban rail rail_electric ship" speed="6.95" length="10.32" shape="942.00,962.95 944.16,961.10 946.39,960.38 948.69,960.76 951.05,962.26"/>
    </edge>
    <edge id=":2337171964_8" function="internal">
        <lane id=":2337171964_8_0" index="0" allow="delivery bicycle pedestrian" speed="5.56" length="4.82" shape="942.00,962.95 943.43,962.57 944.33,962.81 944.67,963.66 944.47,965.14"/>
    </edge>
    <edge id=":2337171966_0" function="internal">
        <lane id=":2337171966_0_0" index="0" disallow="tram rail_urban rail rail_electric ship" speed="8.33" length="8.79" shape="891.22,1040.83 888.63,1040.49 886.85,1040.32 885.07,1040.27 882.46,1040.29"/>
    </edge>
    <edge id=":2337171966_1" function="internal">
        <lane id=":2337171966_1_0" index="0" allow="delivery bicycle pedestrian" speed="6.95" length="5.08" shape="891.22,1040.83 888.62,1040.09 886.82,1038.70 886.77,1038.61"/>
    </edge>
    <edge id=":2337171966_2" function="internal">
        <lane id=":2337171966_2_0" index="0" disallow="tram rail_urban rail rail_electric ship" speed="8.33" length="2.41" shape="891.22,1040.83 890.10,1039.84 889.80,1038.97"/>
    </edge>
    <edge id=":2337171966_9" function="internal">
        <lane id=":2337171966_9_0" index="0" speed="6.95" length="4.88" shape="886.77,1038.61 885.81,1036.66 885.59,1033.96"/>
    </edge>
    <edge id=":2337171966_10" function="internal">
        <lane id=":2337171966_10_0" index="0" speed="8.33" length="2.41" shape="889.80,1038.97 890.33,1038.21 891.66,1037.56"/>
    </edge>