<?xml version="1.0" encoding="UTF-8"?>

<!-- generated on Wed Jan 18 08:38:34 2023 by SUMO netgenerate Version 0.32.0
<?xml version="1.0" encoding="UTF-8"?>

<configuration xmlns:xsi="http://www.w3.org/2001/XMLSchema-instance" xsi:noNamespaceSchemaLocation="http://sumo.dlr.de/xsd/netgenerateConfiguration.xsd">

    <grid_network>
        <grid value="true"/>
        <grid.number value="5"/>
    </grid_network>

    <processing>
        <no-turnarounds value="true"/>
    </processing>

    <building_defaults>
        <default.lanenumber value="5"/>
    </building_defaults>

</configuration>
-->

<net version="0.27" xmlns:xsi="http://www.w3.org/2001/XMLSchema-instance" xsi:noNamespaceSchemaLocation="http://sumo.dlr.de/xsd/net_file.xsd">

    <location netOffset="0.00,0.00" convBoundary="0.00,0.00,400.00,400.00" origBoundary="0.00,0.00,400.00,400.00" projParameter="!"/>

    <edge id=":0/0_0" function="internal">
        <lane id=":0/0_0_0" index="0" speed="13.90" length="50.48" shape="-14.85,16.45 -12.89,2.76 -7.03,-7.02 2.76,-12.89 16.45,-14.85"/>
    </edge>
    <edge id=":0/0_1" function="internal">
        <lane id=":0/0_1_0" index="0" speed="13.90" length="45.16" shape="-11.55,16.45 -9.80,4.20 -4.55,-4.55 4.20,-9.80 16.45,-11.55"/>
    </edge>
    <edge id=":0/0_2" function="internal">
        <lane id=":0/0_2_0" index="0" speed="13.90" length="39.83" shape="-8.25,16.45 -6.71,5.64 -2.08,-2.07 5.64,-6.71 16.45,-8.25"/>
    </edge>
    <edge id=":0/0_3" function="internal">
        <lane id=":0/0_3_0" index="0" speed="13.90" length="34.51" shape="-4.95,16.45 -3.61,7.09 0.40,0.40 7.09,-3.61 16.45,-4.95"/>
    </edge>
    <edge id=":0/0_4" function="internal">
        <lane id=":0/0_4_0" index="0" speed="13.90" length="29.19" shape="-1.65,16.45 -0.52,8.53 2.88,2.87 8.53,-0.52 16.45,-1.65"/>
    </edge>
    <edge id=":0/0_5" function="internal">
        <lane id=":0/0_5_0" index="0" speed="13.90" length="2.58" shape="16.45,14.85 15.75,14.95 15.25,15.25 14.95,15.75 14.85,16.45"/>
    </edge>
    <edge id=":0/0_6" function="internal">
        <lane id=":0/0_6_0" index="0" speed="13.90" length="7.90" shape="16.45,11.55 14.31,11.86 12.77,12.78 11.86,14.31 11.55,16.45"/>
    </edge>
    <edge id=":0/0_7" function="internal">
        <lane id=":0/0_7_0" index="0" speed="13.90" length="13.22" shape="16.45,8.25 12.86,8.76 10.30,10.30 8.76,12.86 8.25,16.45"/>
    </edge>
    <edge id=":0/0_8" function="internal">
        <lane id=":0/0_8_0" index="0" speed="13.90" length="18.55" shape="16.45,4.95 11.42,5.67 7.83,7.83 5.67,11.42 4.95,16.45"/>
    </edge>
    <edge id=":0/0_9" function="internal">
        <lane id=":0/0_9_0" index="0" speed="13.90" length="23.87" shape="16.45,1.65 9.98,2.58 5.35,5.35 2.58,9.97 1.65,16.45"/>
    </edge>
    <edge id=":0/1_0" function="internal">
        <lane id=":0/1_0_0" index="0" speed="13.90" length="35.90" shape="-14.85,117.95 -14.85,82.05"/>
        <lane id=":0/1_0_1" index="1" speed="13.90" length="35.90" shape="-11.55,117.95 -11.55,82.05"/>
        <lane id=":0/1_0_2" index="2" speed="13.90" length="35.90" shape="-8.25,117.95 -8.25,82.05"/>
        <lane id=":0/1_0_3" index="3" speed="13.90" length="35.90" shape="-4.95,117.95 -4.95,82.05"/>
        <lane id=":0/1_0_4" index="4" speed="13.90" length="35.90" shape="-1.65,117.95 -1.65,82.05"/>
    </edge>
    <edge id=":0/1_5" function="internal">
        <lane id=":0/1_5_0" index="0" speed="13.90" length="12.69" shape="-1.65,117.95 -0.43,106.49 0.05,105.43"/>
    </edge>
    <edge id=":0/1_6" function="internal">
        <lane id=":0/1_6_0" index="0" speed="13.90" length="11.13" shape="-1.65,117.95 -0.43,107.93 0.05,107.01"/>
    </edge>
    <edge id=":0/1_7" function="internal">
        <lane id=":0/1_7_0" index="0" speed="13.90" length="9.59" shape="-1.65,117.95 -0.43,109.37 0.05,108.58"/>
    </edge>
    <edge id=":0/1_22" function="internal">
        <lane id=":0/1_22_0" index="0" speed="13.90" length="24.40" shape="0.05,105.43 3.25,98.30 9.37,93.39 17.95,91.75"/>
    </edge>
    <edge id=":0/1_23" function="internal">
        <lane id=":0/1_23_0" index="0" speed="13.90" length="23.18" shape="0.05,107.01 3.25,100.78 9.37,96.48 17.95,95.05"/>
    </edge>
    <edge id=":0/1_24" function="internal">
        <lane id=":0/1_24_0" index="0" speed="13.90" length="22.02" shape="0.05,108.58 3.25,103.25 9.37,99.57 17.95,98.35"/>
    </edge>
    <edge id=":0/1_8" function="internal">
        <lane id=":0/1_8_0" index="0" speed="13.90" length="5.00" shape="17.95,114.85 16.59,115.04 15.63,115.62 15.04,116.59 14.85,117.95"/>
    </edge>
    <edge id=":0/1_9" function="internal">
        <lane id=":0/1_9_0" index="0" speed="13.90" length="10.32" shape="17.95,111.55 15.15,111.95 13.15,113.15 11.95,115.15 11.55,117.95"/>
    </edge>
    <edge id=":0/1_10" function="internal">
        <lane id=":0/1_10_0" index="0" speed="13.90" length="13.09" shape="17.95,111.55 13.71,111.95 10.68,113.15 8.86,115.15 8.25,117.95"/>
    </edge>
    <edge id=":0/1_11" function="internal">
        <lane id=":0/1_11_0" index="0" speed="13.90" length="44.95" shape="17.95,108.25 5.04,106.61 -4.17,101.70 -9.71,93.51 -11.55,82.05"/>
    </edge>
    <edge id=":0/1_12" function="internal">
        <lane id=":0/1_12_0" index="0" speed="13.90" length="39.63" shape="17.95,104.95 6.49,103.52 -1.70,99.23 -6.61,92.07 -8.25,82.05"/>
    </edge>
    <edge id=":0/1_13" function="internal">
        <lane id=":0/1_13_0" index="0" speed="13.90" length="34.31" shape="17.95,101.65 7.93,100.42 0.77,96.75 -3.52,90.62 -4.95,82.05"/>
    </edge>
    <edge id=":0/1_14" function="internal">
        <lane id=":0/1_14_0" index="0" speed="13.90" length="31.61" shape="17.95,101.65 9.37,100.42 3.25,96.75 -0.43,90.62 -1.65,82.05"/>
    </edge>
    <edge id=":0/1_15" function="internal">
        <lane id=":0/1_15_0" index="0" speed="13.90" length="5.00" shape="14.85,82.05 15.04,83.41 15.62,84.38 16.59,84.96 17.95,85.15"/>
    </edge>
    <edge id=":0/1_16" function="internal">
        <lane id=":0/1_16_0" index="0" speed="13.90" length="7.85" shape="14.85,82.05 15.04,84.85 15.62,86.85 16.59,88.05 17.95,88.45"/>
    </edge>
    <edge id=":0/1_17" function="internal">
        <lane id=":0/1_17_0" index="0" speed="13.90" length="35.90" shape="14.85,82.05 14.85,117.95"/>
        <lane id=":0/1_17_1" index="1" speed="13.90" length="35.90" shape="11.55,82.05 11.55,117.95"/>
        <lane id=":0/1_17_2" index="2" speed="13.90" length="35.90" shape="8.25,82.05 8.25,117.95"/>
        <lane id=":0/1_17_3" index="3" speed="13.90" length="35.90" shape="4.95,82.05 4.95,117.95"/>
        <lane id=":0/1_17_4" index="4" speed="13.90" length="35.90" shape="1.65,82.05 1.65,117.95"/>
    </edge>
    <edge id=":0/2_0" function="internal">
        <lane id=":0/2_0_0" index="0" speed="13.90" length="35.90" shape="-14.85,217.95 -14.85,182.05"/>
        <lane id=":0/2_0_1" index="1" speed="13.90" length="35.90" shape="-11.55,217.95 -11.55,182.05"/>
        <lane id=":0/2_0_2" index="2" speed="13.90" length="35.90" shape="-8.25,217.95 -8.25,182.05"/>
        <lane id=":0/2_0_3" index="3" speed="13.90" length="35.90" shape="-4.95,217.95 -4.95,182.05"/>
        <lane id=":0/2_0_4" index="4" speed="13.90" length="35.90" shape="-1.65,217.95 -1.65,182.05"/>
    </edge>
    <edge id=":0/2_5" function="internal">
        <lane id=":0/2_5_0" index="0" speed="13.90" length="12.69" shape="-1.65,217.95 -0.43,206.49 0.05,205.43"/>
    </edge>
    <edge id=":0/2_6" function="internal">
        <lane id=":0/2_6_0" index="0" speed="13.90" length="11.13" shape="-1.65,217.95 -0.43,207.93 0.05,207.01"/>
    </edge>
    <edge id=":0/2_7" function="internal">
        <lane id=":0/2_7_0" index="0" speed="13.90" length="9.59" shape="-1.65,217.95 -0.43,209.37 0.05,208.58"/>
    </edge>
    <edge id=":0/2_22" function="internal">
        <lane id=":0/2_22_0" index="0" speed="13.90" length="24.40" shape="0.05,205.43 3.25,198.30 9.37,193.39 17.95,191.75"/>
    </edge>
    <edge id=":0/2_23" function="internal">
        <lane id=":0/2_23_0" index="0" speed="13.90" length="23.18" shape="0.05,207.01 3.25,200.77 9.37,196.48 17.95,195.05"/>
    </edge>
    <edge id=":0/2_24" function="internal">
        <lane id=":0/2_24_0" index="0" speed="13.90" length="22.02" shape="0.05,208.58 3.25,203.25 9.37,199.57 17.95,198.35"/>
    </edge>
    <edge id=":0/2_8" function="internal">
        <lane id=":0/2_8_0" index="0" speed="13.90" length="5.00" shape="17.95,214.85 16.59,215.04 15.62,215.62 15.04,216.59 14.85,217.95"/>
    </edge>
    <edge id=":0/2_9" function="internal">
        <lane id=":0/2_9_0" index="0" speed="13.90" length="10.32" shape="17.95,211.55 15.15,211.95 13.15,213.15 11.95,215.15 11.55,217.95"/>
    </edge>
    <edge id=":0/2_10" function="internal">
        <lane id=":0/2_10_0" index="0" speed="13.90" length="13.09" shape="17.95,211.55 13.71,211.95 10.67,213.15 8.86,215.15 8.25,217.95"/>
    </edge>
    <edge id=":0/2_11" function="internal">
        <lane id=":0/2_11_0" index="0" speed="13.90" length="44.95" shape="17.95,208.25 5.04,206.61 -4.17,201.70 -9.71,193.51 -11.55,182.05"/>
    </edge>
    <edge id=":0/2_12" function="internal">
        <lane id=":0/2_12_0" index="0" speed="13.90" length="39.63" shape="17.95,204.95 6.49,203.52 -1.70,199.22 -6.61,192.07 -8.25,182.05"/>
    </edge>
    <edge id=":0/2_13" function="internal">
        <lane id=":0/2_13_0" index="0" speed="13.90" length="34.31" shape="17.95,201.65 7.93,200.43 0.77,196.75 -3.52,190.62 -4.95,182.05"/>
    </edge>
    <edge id=":0/2_14" function="internal">
        <lane id=":0/2_14_0" index="0" speed="13.90" length="31.61" shape="17.95,201.65 9.38,200.43 3.25,196.75 -0.42,190.62 -1.65,182.05"/>
    </edge>
    <edge id=":0/2_15" function="internal">
        <lane id=":0/2_15_0" index="0" speed="13.90" length="5.00" shape="14.85,182.05 15.04,183.41 15.62,184.38 16.59,184.96 17.95,185.15"/>
    </edge>
    <edge id=":0/2_16" function="internal">
        <lane id=":0/2_16_0" index="0" speed="13.90" length="7.85" shape="14.85,182.05 15.04,184.85 15.62,186.85 16.59,188.05 17.95,188.45"/>
    </edge>
    <edge id=":0/2_17" function="internal">
        <lane id=":0/2_17_0" index="0" speed="13.90" length="35.90" shape="14.85,182.05 14.85,217.95"/>
        <lane id=":0/2_17_1" index="1" speed="13.90" length="35.90" shape="11.55,182.05 11.55,217.95"/>
        <lane id=":0/2_17_2" index="2" speed="13.90" length="35.90" shape="8.25,182.05 8.25,217.95"/>
        <lane id=":0/2_17_3" index="3" speed="13.90" length="35.90" shape="4.95,182.05 4.95,217.95"/>
        <lane id=":0/2_17_4" index="4" speed="13.90" length="35.90" shape="1.65,182.05 1.65,217.95"/>
    </edge>
    <edge id=":0/3_0" function="internal">
        <lane id=":0/3_0_0" index="0" speed="13.90" length="35.90" shape="-14.85,317.95 -14.85,282.05"/>
        <lane id=":0/3_0_1" index="1" speed="13.90" length="35.90" shape="-11.55,317.95 -11.55,282.05"/>
        <lane id=":0/3_0_2" index="2" speed="13.90" length="35.90" shape="-8.25,317.95 -8.25,282.05"/>
        <lane id=":0/3_0_3" index="3" speed="13.90" length="35.90" shape="-4.95,317.95 -4.95,282.05"/>
        <lane id=":0/3_0_4" index="4" speed="13.90" length="35.90" shape="-1.65,317.95 -1.65,282.05"/>
    </edge>
    <edge id=":0/3_5" function="internal">
        <lane id=":0/3_5_0" index="0" speed="13.90" length="12.69" shape="-1.65,317.95 -0.42,306.49 0.05,305.43"/>
    </edge>
    <edge id=":0/3_6" function="internal">
        <lane id=":0/3_6_0" index="0" speed="13.90" length="11.13" shape="-1.65,317.95 -0.42,307.93 0.05,307.01"/>
    </edge>
    <edge id=":0/3_7" function="internal">
        <lane id=":0/3_7_0" index="0" speed="13.90" length="9.59" shape="-1.65,317.95 -0.42,309.38 0.05,308.58"/>
    </edge>
    <edge id=":0/3_22" function="internal">
        <lane id=":0/3_22_0" index="0" speed="13.90" length="24.40" shape="0.05,305.43 3.25,298.30 9.38,293.39 17.95,291.75"/>
    </edge>
    <edge id=":0/3_23" function="internal">
        <lane id=":0/3_23_0" index="0" speed="13.90" length="23.18" shape="0.05,307.01 3.25,300.78 9.38,296.48 17.95,295.05"/>
    </edge>
    <edge id=":0/3_24" function="internal">
        <lane id=":0/3_24_0" index="0" speed="13.90" length="22.02" shape="0.05,308.58 3.25,303.25 9.38,299.58 17.95,298.35"/>
    </edge>
    <edge id=":0/3_8" function="internal">
        <lane id=":0/3_8_0" index="0" speed="13.90" length="5.00" shape="17.95,314.85 16.59,315.04 15.63,315.62 15.04,316.59 14.85,317.95"/>
    </edge>
    <edge id=":0/3_9" function="internal">
        <lane id=":0/3_9_0" index="0" speed="13.90" length="10.32" shape="17.95,311.55 15.15,311.95 13.15,313.15 11.95,315.15 11.55,317.95"/>
    </edge>
    <edge id=":0/3_10" function="internal">
        <lane id=":0/3_10_0" index="0" speed="13.90" length="13.09" shape="17.95,311.55 13.71,311.95 10.68,313.15 8.86,315.15 8.25,317.95"/>
    </edge>
    <edge id=":0/3_11" function="internal">
        <lane id=":0/3_11_0" index="0" speed="13.90" length="44.95" shape="17.95,308.25 5.04,306.61 -4.17,301.70 -9.71,293.51 -11.55,282.05"/>
    </edge>
    <edge id=":0/3_12" function="internal">
        <lane id=":0/3_12_0" index="0" speed="13.90" length="39.63" shape="17.95,304.95 6.49,303.52 -1.70,299.22 -6.61,292.07 -8.25,282.05"/>
    </edge>
    <edge id=":0/3_13" function="internal">
        <lane id=":0/3_13_0" index="0" speed="13.90" length="34.31" shape="17.95,301.65 7.93,300.43 0.77,296.75 -3.52,290.62 -4.95,282.05"/>
    </edge>
    <edge id=":0/3_14" function="internal">
        <lane id=":0/3_14_0" index="0" speed="13.90" length="31.61" shape="17.95,301.65 9.37,300.43 3.25,296.75 -0.43,290.62 -1.65,282.05"/>
    </edge>
    <edge id=":0/3_15" function="internal">
        <lane id=":0/3_15_0" index="0" speed="13.90" length="5.00" shape="14.85,282.05 15.04,283.41 15.63,284.38 16.59,284.96 17.95,285.15"/>
    </edge>
    <edge id=":0/3_16" function="internal">
        <lane id=":0/3_16_0" index="0" speed="13.90" length="7.85" shape="14.85,282.05 15.04,284.85 15.63,286.85 16.59,288.05 17.95,288.45"/>
    </edge>
    <edge id=":0/3_17" function="internal">
        <lane id=":0/3_17_0" index="0" speed="13.90" length="35.90" shape="14.85,282.05 14.85,317.95"/>
        <lane id=":0/3_17_1" index="1" speed="13.90" length="35.90" shape="11.55,282.05 11.55,317.95"/>
        <lane id=":0/3_17_2" index="2" speed="13.90" length="35.90" shape="8.25,282.05 8.25,317.95"/>
        <lane id=":0/3_17_3" index="3" speed="13.90" length="35.90" shape="4.95,282.05 4.95,317.95"/>
        <lane id=":0/3_17_4" index="4" speed="13.90" length="35.90" shape="1.65,282.05 1.65,317.95"/>
    </edge>
    <edge id=":0/4_0" function="internal">
        <lane id=":0/4_0_0" index="0" speed="13.90" length="50.48" shape="16.45,414.85 2.76,412.89 -7.02,407.03 -12.89,397.24 -14.85,383.55"/>
    </edge>
    <edge id=":0/4_1" function="internal">
        <lane id=":0/4_1_0" index="0" speed="13.90" length="45.16" shape="16.45,411.55 4.20,409.80 -4.55,404.55 -9.80,395.80 -11.55,383.55"/>
    </edge>
    <edge id=":0/4_2" function="internal">
        <lane id=":0/4_2_0" index="0" speed="13.90" length="39.83" shape="16.45,408.25 5.64,406.71 -2.07,402.07 -6.71,394.36 -8.25,383.55"/>
    </edge>
    <edge id=":0/4_3" function="internal">
        <lane id=":0/4_3_0" index="0" speed="13.90" length="34.51" shape="16.45,404.95 7.09,403.61 0.40,399.60 -3.61,392.91 -4.95,383.55"/>
    </edge>
    <edge id=":0/4_4" function="internal">
        <lane id=":0/4_4_0" index="0" speed="13.90" length="29.19" shape="16.45,401.65 8.53,400.52 2.87,397.12 -0.52,391.47 -1.65,383.55"/>
    </edge>
    <edge id=":0/4_5" function="internal">
        <lane id=":0/4_5_0" index="0" speed="13.90" length="2.58" shape="14.85,383.55 14.95,384.25 15.25,384.75 15.75,385.05 16.45,385.15"/>
    </edge>
    <edge id=":0/4_6" function="internal">
        <lane id=":0/4_6_0" index="0" speed="13.90" length="7.90" shape="11.55,383.55 11.86,385.69 12.78,387.22 14.31,388.14 16.45,388.45"/>
    </edge>
    <edge id=":0/4_7" function="internal">
        <lane id=":0/4_7_0" index="0" speed="13.90" length="13.22" shape="8.25,383.55 8.76,387.14 10.30,389.70 12.86,391.24 16.45,391.75"/>
    </edge>
    <edge id=":0/4_8" function="internal">
        <lane id=":0/4_8_0" index="0" speed="13.90" length="18.55" shape="4.95,383.55 5.67,388.58 7.83,392.18 11.42,394.33 16.45,395.05"/>
    </edge>
    <edge id=":0/4_9" function="internal">
        <lane id=":0/4_9_0" index="0" speed="13.90" length="23.87" shape="1.65,383.55 2.58,390.03 5.35,394.65 9.97,397.43 16.45,398.35"/>
    </edge>
    <edge id=":1/0_0" function="internal">
        <lane id=":1/0_0_0" index="0" speed="13.90" length="5.00" shape="85.15,17.95 84.96,16.59 84.38,15.63 83.41,15.04 82.05,14.85"/>
    </edge>
    <edge id=":1/0_1" function="internal">
        <lane id=":1/0_1_0" index="0" speed="13.90" length="10.32" shape="88.45,17.95 88.05,15.15 86.85,13.15 84.85,11.95 82.05,11.55"/>
    </edge>
    <edge id=":1/0_2" function="internal">
        <lane id=":1/0_2_0" index="0" speed="13.90" length="13.09" shape="88.45,17.95 88.05,13.71 86.85,10.68 84.85,8.86 82.05,8.25"/>
    </edge>
    <edge id=":1/0_3" function="internal">
        <lane id=":1/0_3_0" index="0" speed="13.90" length="44.95" shape="91.75,17.95 93.39,5.04 98.30,-4.17 106.49,-9.71 117.95,-11.55"/>
    </edge>
    <edge id=":1/0_4" function="internal">
        <lane id=":1/0_4_0" index="0" speed="13.90" length="39.63" shape="95.05,17.95 96.48,6.49 100.77,-1.70 107.93,-6.61 117.95,-8.25"/>
    </edge>
    <edge id=":1/0_5" function="internal">
        <lane id=":1/0_5_0" index="0" speed="13.90" length="34.31" shape="98.35,17.95 99.58,7.93 103.25,0.77 109.38,-3.52 117.95,-4.95"/>
    </edge>
    <edge id=":1/0_6" function="internal">
        <lane id=":1/0_6_0" index="0" speed="13.90" length="31.61" shape="98.35,17.95 99.58,9.38 103.25,3.25 109.38,-0.42 117.95,-1.65"/>
    </edge>
    <edge id=":1/0_7" function="internal">
        <lane id=":1/0_7_0" index="0" speed="13.90" length="5.00" shape="117.95,14.85 116.59,15.04 115.62,15.62 115.04,16.59 114.85,17.95"/>
    </edge>
    <edge id=":1/0_8" function="internal">
        <lane id=":1/0_8_0" index="0" speed="13.90" length="7.85" shape="117.95,14.85 115.15,15.04 113.15,15.62 111.95,16.59 111.55,17.95"/>
    </edge>
    <edge id=":1/0_9" function="internal">
        <lane id=":1/0_9_0" index="0" speed="13.90" length="35.90" shape="117.95,14.85 82.05,14.85"/>
        <lane id=":1/0_9_1" index="1" speed="13.90" length="35.90" shape="117.95,11.55 82.05,11.55"/>
        <lane id=":1/0_9_2" index="2" speed="13.90" length="35.90" shape="117.95,8.25 82.05,8.25"/>
        <lane id=":1/0_9_3" index="3" speed="13.90" length="35.90" shape="117.95,4.95 82.05,4.95"/>
        <lane id=":1/0_9_4" index="4" speed="13.90" length="35.90" shape="117.95,1.65 82.05,1.65"/>
    </edge>
    <edge id=":1/0_14" function="internal">
        <lane id=":1/0_14_0" index="0" speed="13.90" length="35.90" shape="82.05,-14.85 117.95,-14.85"/>
        <lane id=":1/0_14_1" index="1" speed="13.90" length="35.90" shape="82.05,-11.55 117.95,-11.55"/>
        <lane id=":1/0_14_2" index="2" speed="13.90" length="35.90" shape="82.05,-8.25 117.95,-8.25"/>
        <lane id=":1/0_14_3" index="3" speed="13.90" length="35.90" shape="82.05,-4.95 117.95,-4.95"/>
        <lane id=":1/0_14_4" index="4" speed="13.90" length="35.90" shape="82.05,-1.65 117.95,-1.65"/>
    </edge>
    <edge id=":1/0_19" function="internal">
        <lane id=":1/0_19_0" index="0" speed="13.90" length="12.69" shape="82.05,-1.65 93.51,-0.43 94.57,0.05"/>
    </edge>
    <edge id=":1/0_20" function="internal">
        <lane id=":1/0_20_0" index="0" speed="13.90" length="11.13" shape="82.05,-1.65 92.07,-0.43 92.99,0.05"/>
    </edge>
    <edge id=":1/0_21" function="internal">
        <lane id=":1/0_21_0" index="0" speed="13.90" length="9.59" shape="82.05,-1.65 90.62,-0.43 91.42,0.05"/>
    </edge>
    <edge id=":1/0_22" function="internal">
        <lane id=":1/0_22_0" index="0" speed="13.90" length="24.40" shape="94.57,0.05 101.70,3.25 106.61,9.37 108.25,17.95"/>
    </edge>
    <edge id=":1/0_23" function="internal">
        <lane id=":1/0_23_0" index="0" speed="13.90" length="23.18" shape="92.99,0.05 99.22,3.25 103.52,9.37 104.95,17.95"/>
    </edge>
    <edge id=":1/0_24" function="internal">
        <lane id=":1/0_24_0" index="0" speed="13.90" length="22.02" shape="91.42,0.05 96.75,3.25 100.43,9.37 101.65,17.95"/>
    </edge>
    <edge id=":1/1_0" function="internal">
        <lane id=":1/1_0_0" index="0" speed="13.90" length="5.00" shape="85.15,117.95 84.96,116.59 84.38,115.62 83.41,115.04 82.05,114.85"/>
    </edge>
    <edge id=":1/1_1" function="internal">
        <lane id=":1/1_1_0" index="0" speed="13.90" length="7.85" shape="85.15,117.95 84.96,115.15 84.38,113.15 83.41,111.95 82.05,111.55"/>
    </edge>
    <edge id=":1/1_2" function="internal">
        <lane id=":1/1_2_0" index="0" speed="13.90" length="35.90" shape="85.15,117.95 85.15,82.05"/>
        <lane id=":1/1_2_1" index="1" speed="13.90" length="35.90" shape="88.45,117.95 88.45,82.05"/>
        <lane id=":1/1_2_2" index="2" speed="13.90" length="35.90" shape="91.75,117.95 91.75,82.05"/>
        <lane id=":1/1_2_3" index="3" speed="13.90" length="35.90" shape="95.05,117.95 95.05,82.05"/>
        <lane id=":1/1_2_4" index="4" speed="13.90" length="35.90" shape="98.35,117.95 98.35,82.05"/>
    </edge>
    <edge id=":1/1_7" function="internal">
        <lane id=":1/1_7_0" index="0" speed="13.90" length="11.13" shape="98.35,117.95 99.58,107.93 100.05,107.01"/>
    </edge>
    <edge id=":1/1_8" function="internal">
        <lane id=":1/1_8_0" index="0" speed="13.90" length="9.59" shape="98.35,117.95 99.58,109.37 100.05,108.58"/>
    </edge>
    <edge id=":1/1_34" function="internal">
        <lane id=":1/1_34_0" index="0" speed="13.90" length="23.18" shape="100.05,107.01 103.25,100.78 109.38,96.48 117.95,95.05"/>
    </edge>
    <edge id=":1/1_35" function="internal">
        <lane id=":1/1_35_0" index="0" speed="13.90" length="22.02" shape="100.05,108.58 103.25,103.25 109.38,99.57 117.95,98.35"/>
    </edge>
    <edge id=":1/1_9" function="internal">
        <lane id=":1/1_9_0" index="0" speed="13.90" length="5.00" shape="117.95,114.85 116.59,115.04 115.62,115.62 115.04,116.59 114.85,117.95"/>
    </edge>
    <edge id=":1/1_10" function="internal">
        <lane id=":1/1_10_0" index="0" speed="13.90" length="10.32" shape="117.95,111.55 115.15,111.95 113.15,113.15 111.95,115.15 111.55,117.95"/>
    </edge>
    <edge id=":1/1_11" function="internal">
        <lane id=":1/1_11_0" index="0" speed="13.90" length="13.09" shape="117.95,111.55 113.71,111.95 110.67,113.15 108.86,115.15 108.25,117.95"/>
    </edge>
    <edge id=":1/1_12" function="internal">
        <lane id=":1/1_12_0" index="0" speed="13.90" length="35.90" shape="117.95,111.55 82.05,111.55"/>
        <lane id=":1/1_12_1" index="1" speed="13.90" length="35.90" shape="117.95,108.25 82.05,108.25"/>
        <lane id=":1/1_12_2" index="2" speed="13.90" length="35.90" shape="117.95,104.95 82.05,104.95"/>
    </edge>
    <edge id=":1/1_15" function="internal">
        <lane id=":1/1_15_0" index="0" speed="13.90" length="36.93" shape="117.95,104.95 107.93,103.52 100.78,99.23 96.48,92.07 95.05,82.05"/>
    </edge>
    <edge id=":1/1_16" function="internal">
        <lane id=":1/1_16_0" index="0" speed="13.90" length="31.61" shape="117.95,101.65 109.37,100.42 103.25,96.75 99.57,90.62 98.35,82.05"/>
    </edge>
    <edge id=":1/1_17" function="internal">
        <lane id=":1/1_17_0" index="0" speed="13.90" length="5.00" shape="114.85,82.05 115.04,83.41 115.62,84.38 116.59,84.96 117.95,85.15"/>
    </edge>
    <edge id=":1/1_18" function="internal">
        <lane id=":1/1_18_0" index="0" speed="13.90" length="7.85" shape="114.85,82.05 115.04,84.85 115.62,86.85 116.59,88.05 117.95,88.45"/>
    </edge>
    <edge id=":1/1_19" function="internal">
        <lane id=":1/1_19_0" index="0" speed="13.90" length="35.90" shape="114.85,82.05 114.85,117.95"/>
        <lane id=":1/1_19_1" index="1" speed="13.90" length="35.90" shape="111.55,82.05 111.55,117.95"/>
        <lane id=":1/1_19_2" index="2" speed="13.90" length="35.90" shape="108.25,82.05 108.25,117.95"/>
        <lane id=":1/1_19_3" index="3" speed="13.90" length="35.90" shape="104.95,82.05 104.95,117.95"/>
        <lane id=":1/1_19_4" index="4" speed="13.90" length="35.90" shape="101.65,82.05 101.65,117.95"/>
    </edge>
    <edge id=":1/1_24" function="internal">
        <lane id=":1/1_24_0" index="0" speed="13.90" length="11.13" shape="101.65,82.05 100.42,92.07 99.95,92.99"/>
    </edge>
    <edge id=":1/1_25" function="internal">
        <lane id=":1/1_25_0" index="0" speed="13.90" length="9.59" shape="101.65,82.05 100.42,90.62 99.95,91.42"/>
    </edge>
    <edge id=":1/1_36" function="internal">
        <lane id=":1/1_36_0" index="0" speed="13.90" length="23.18" shape="99.95,92.99 96.75,99.22 90.62,103.52 82.05,104.95"/>
    </edge>
    <edge id=":1/1_37" function="internal">
        <lane id=":1/1_37_0" index="0" speed="13.90" length="22.02" shape="99.95,91.42 96.75,96.75 90.62,100.43 82.05,101.65"/>
    </edge>
    <edge id=":1/1_26" function="internal">
        <lane id=":1/1_26_0" index="0" speed="13.90" length="5.00" shape="82.05,85.15 83.41,84.96 84.38,84.38 84.96,83.41 85.15,82.05"/>
    </edge>
    <edge id=":1/1_27" function="internal">
        <lane id=":1/1_27_0" index="0" speed="13.90" length="10.32" shape="82.05,88.45 84.85,88.05 86.85,86.85 88.05,84.85 88.45,82.05"/>
    </edge>
    <edge id=":1/1_28" function="internal">
        <lane id=":1/1_28_0" index="0" speed="13.90" length="13.09" shape="82.05,88.45 86.29,88.05 89.33,86.85 91.14,84.85 91.75,82.05"/>
    </edge>
    <edge id=":1/1_29" function="internal">
        <lane id=":1/1_29_0" index="0" speed="13.90" length="35.90" shape="82.05,88.45 117.95,88.45"/>
        <lane id=":1/1_29_1" index="1" speed="13.90" length="35.90" shape="82.05,91.75 117.95,91.75"/>
        <lane id=":1/1_29_2" index="2" speed="13.90" length="35.90" shape="82.05,95.05 117.95,95.05"/>
    </edge>
    <edge id=":1/1_32" function="internal">
        <lane id=":1/1_32_0" index="0" speed="13.90" length="36.93" shape="82.05,95.05 92.07,96.48 99.22,100.77 103.52,107.93 104.95,117.95"/>
    </edge>
    <edge id=":1/1_33" function="internal">
        <lane id=":1/1_33_0" index="0" speed="13.90" length="31.61" shape="82.05,98.35 90.62,99.58 96.75,103.25 100.43,109.38 101.65,117.95"/>
    </edge>
    <edge id=":1/2_0" function="internal">
        <lane id=":1/2_0_0" index="0" speed="13.90" length="5.00" shape="85.15,217.95 84.96,216.59 84.38,215.63 83.41,215.04 82.05,214.85"/>
    </edge>
    <edge id=":1/2_1" function="internal">
        <lane id=":1/2_1_0" index="0" speed="13.90" length="7.85" shape="85.15,217.95 84.96,215.15 84.38,213.15 83.41,211.95 82.05,211.55"/>
    </edge>
    <edge id=":1/2_2" function="internal">
        <lane id=":1/2_2_0" index="0" speed="13.90" length="35.90" shape="85.15,217.95 85.15,182.05"/>
        <lane id=":1/2_2_1" index="1" speed="13.90" length="35.90" shape="88.45,217.95 88.45,182.05"/>
        <lane id=":1/2_2_2" index="2" speed="13.90" length="35.90" shape="91.75,217.95 91.75,182.05"/>
        <lane id=":1/2_2_3" index="3" speed="13.90" length="35.90" shape="95.05,217.95 95.05,182.05"/>
        <lane id=":1/2_2_4" index="4" speed="13.90" length="35.90" shape="98.35,217.95 98.35,182.05"/>
    </edge>
    <edge id=":1/2_7" function="internal">
        <lane id=":1/2_7_0" index="0" speed="13.90" length="11.13" shape="98.35,217.95 99.58,207.93 100.05,207.01"/>
    </edge>
    <edge id=":1/2_8" function="internal">
        <lane id=":1/2_8_0" index="0" speed="13.90" length="9.59" shape="98.35,217.95 99.58,209.37 100.05,208.58"/>
    </edge>
    <edge id=":1/2_34" function="internal">
        <lane id=":1/2_34_0" index="0" speed="13.90" length="23.18" shape="100.05,207.01 103.25,200.77 109.38,196.48 117.95,195.05"/>
    </edge>
    <edge id=":1/2_35" function="internal">
        <lane id=":1/2_35_0" index="0" speed="13.90" length="22.02" shape="100.05,208.58 103.25,203.25 109.38,199.57 117.95,198.35"/>
    </edge>
    <edge id=":1/2_9" function="internal">
        <lane id=":1/2_9_0" index="0" speed="13.90" length="5.00" shape="117.95,214.85 116.59,215.04 115.62,215.62 115.04,216.59 114.85,217.95"/>
    </edge>
    <edge id=":1/2_10" function="internal">
        <lane id=":1/2_10_0" index="0" speed="13.90" length="10.32" shape="117.95,211.55 115.15,211.95 113.15,213.15 111.95,215.15 111.55,217.95"/>
    </edge>
    <edge id=":1/2_11" function="internal">
        <lane id=":1/2_11_0" index="0" speed="13.90" length="13.09" shape="117.95,211.55 113.71,211.95 110.67,213.15 108.86,215.15 108.25,217.95"/>
    </edge>
    <edge id=":1/2_12" function="internal">
        <lane id=":1/2_12_0" index="0" speed="13.90" length="35.90" shape="117.95,211.55 82.05,211.55"/>
        <lane id=":1/2_12_1" index="1" speed="13.90" length="35.90" shape="117.95,208.25 82.05,208.25"/>
        <lane id=":1/2_12_2" index="2" speed="13.90" length="35.90" shape="117.95,204.95 82.05,204.95"/>
    </edge>
    <edge id=":1/2_15" function="internal">
        <lane id=":1/2_15_0" index="0" speed="13.90" length="36.93" shape="117.95,204.95 107.93,203.52 100.78,199.22 96.48,192.07 95.05,182.05"/>
    </edge>
    <edge id=":1/2_16" function="internal">
        <lane id=":1/2_16_0" index="0" speed="13.90" length="31.61" shape="117.95,201.65 109.37,200.43 103.25,196.75 99.57,190.62 98.35,182.05"/>
    </edge>
    <edge id=":1/2_17" function="internal">
        <lane id=":1/2_17_0" index="0" speed="13.90" length="5.00" shape="114.85,182.05 115.04,183.41 115.62,184.38 116.59,184.96 117.95,185.15"/>
    </edge>
    <edge id=":1/2_18" function="internal">